version 2
run Default-0-20230713-00:28:34-3684
attr configname Default
attr datetime 20230713-00:28:34
attr experiment Default
attr inifile omnetpp.ini
attr iterationvars ""
attr iterationvarsf ""
attr measurement ""
attr network CircleNetwork
attr processid 3684
attr repetition 0
attr replication #0
attr resultdir results
attr runnumber 0
attr seedset 0
param *.playgroundSizeX 2500m
param *.playgroundSizeY 2500m
param *.playgroundSizeZ 50m
param *.annotations.draw true
param *obstacles.bug false
param *.manager.updateInterval 1s
param *.manager.host "\"localhost\""
param *.manager.port 9999
param *.manager.autoShutdown true
param *.manager.launchConfig "xmldoc(\"circle.launchd.xml\")"
param *.rsu[0].mobility.x 2000
param *.rsu[0].mobility.y 2000
param *.rsu[0].mobility.z 3
param *.rsu[*].applType "\"TraCIDemoRSU11p\""
param *.rsu[*].appl.headerLength "80 bit"
param *.rsu[*].appl.sendBeacons false
param *.rsu[*].appl.dataOnSch false
param *.rsu[*].appl.beaconInterval 1s
param *.rsu[*].appl.beaconUserPriority 7
param *.rsu[*].appl.dataUserPriority 5
param *.rsu[*].nic.phy80211p.antennaOffsetZ "0 m"
param *.connectionManager.sendDirect true
param *.connectionManager.maxInterfDist 2600m
param *.connectionManager.drawMaxIntfDist false
param *.**.nic.mac1609_4.useServiceChannel false
param *.**.nic.mac1609_4.txPower 20mW
param *.**.nic.mac1609_4.bitrate 6Mbps
param *.**.nic.phy80211p.minPowerLevel -110dBm
param *.**.nic.phy80211p.useNoiseFloor true
param *.**.nic.phy80211p.noiseFloor -98dBm
param *.**.nic.phy80211p.decider "xmldoc(\"config.xml\")"
param *.**.nic.phy80211p.analogueModels "xmldoc(\"config.xml\")"
param *.**.nic.phy80211p.usePropagationDelay true
param *.**.nic.phy80211p.antenna "xmldoc(\"antenna.xml\", \"/root/Antenna[@id='monopole']\")"
param *.node[*].nic.phy80211p.antennaOffsetY "0 m"
param *.node[*].nic.phy80211p.antennaOffsetZ "1.895 m"
param *.node[*].applType "\"MyVeinsApp\""
param *.node[*].appl.headerLength "80 bit"
param *.node[*].appl.sendBeacons false
param *.node[*].appl.dataOnSch false
param *.node[*].appl.beaconInterval 1s
param *.node[*].veinsmobility.x 0
param *.node[*].veinsmobility.y 0
param *.node[*].veinsmobility.z 0
param *.node[*].veinsmobility.setHostSpeed false
param *.node[*0].veinsmobility.accidentCount 0
param *.node[*0].veinsmobility.accidentStart 73s
param *.node[*0].veinsmobility.accidentDuration 50s

vector 0 CircleNetwork.node[0].veinsmobility posx ETV
vector 1 CircleNetwork.node[0].veinsmobility posy ETV
vector 2 CircleNetwork.node[0].veinsmobility speed ETV
vector 3 CircleNetwork.node[0].veinsmobility acceleration ETV
vector 4 CircleNetwork.node[0].veinsmobility co2emission ETV
vector 5 CircleNetwork.node[1].veinsmobility posx ETV
vector 6 CircleNetwork.node[1].veinsmobility posy ETV
vector 7 CircleNetwork.node[1].veinsmobility speed ETV
vector 8 CircleNetwork.node[1].veinsmobility acceleration ETV
vector 9 CircleNetwork.node[1].veinsmobility co2emission ETV
vector 10 CircleNetwork.node[2].veinsmobility posx ETV
vector 11 CircleNetwork.node[2].veinsmobility posy ETV
vector 12 CircleNetwork.node[2].veinsmobility speed ETV
vector 13 CircleNetwork.node[2].veinsmobility acceleration ETV
vector 14 CircleNetwork.node[2].veinsmobility co2emission ETV
vector 15 CircleNetwork.node[3].veinsmobility posx ETV
vector 16 CircleNetwork.node[3].veinsmobility posy ETV
vector 17 CircleNetwork.node[3].veinsmobility speed ETV
vector 18 CircleNetwork.node[4].veinsmobility posx ETV
vector 19 CircleNetwork.node[4].veinsmobility posy ETV
vector 20 CircleNetwork.node[3].veinsmobility acceleration ETV
vector 21 CircleNetwork.node[3].veinsmobility co2emission ETV
vector 22 CircleNetwork.node[4].veinsmobility speed ETV
vector 23 CircleNetwork.node[4].veinsmobility acceleration ETV
vector 24 CircleNetwork.node[4].veinsmobility co2emission ETV
4	9	8	1.3360549694087
4	10	9	1.7752228440741
4	11	10	2.4460892073033
4	12	11	1.8134961826236
4	13	12	8.1349732959936
4	14	13	7.7068185885273
4	15	14	2.0933865029282
4	16	15	9.2915075584925
4	17	16	4.5765081603236
4	18	17	0.973
4	19	18	7.4643085402741
4	20	19	3.3562349747514
4	21	20	2.8529330283864
4	22	21	0.973
4	23	22	0.973
4	24	23	0.973
4	25	24	0.973
4	26	25	0.973
4	27	26	0.973
4	28	27	0.973
4	29	28	2.2784798398717
4	30	29	3.4726025478864
4	31	30	2.0379276700913
4	32	31	2.0353803840986
4	33	32	1.7319987125637
4	34	33	2.1527474092314
4	35	34	2.7547264913534
4	36	35	10.270575467107
4	37	36	0.973
4	38	37	0.973
4	39	38	0.973
4	40	39	0.973
4	41	40	7.293183609555
4	42	41	2.8813653129022
4	43	42	7.9643747007757
4	44	43	4.9247388776344
4	45	44	4.8406166108225
4	46	45	8.1420634032132
4	47	46	0.973
4	48	47	0.973
4	49	48	10.488886012701
4	50	49	2.6374678193351
4	51	50	4.5882703452799
4	52	51	0.973
4	53	52	5.7115141425795
4	54	53	0.973
4	55	54	0.973
4	56	55	0.973
4	57	56	3.7657168538226
4	58	57	0.973
4	59	58	2.3111817069845
4	60	59	2.6551886814562
4	61	60	4.3760375107082
4	62	61	6.0083673343879
4	63	62	8.6320397842703
4	64	63	0.973
4	65	64	0.973
4	66	65	0.973
4	67	66	0.973
4	68	67	0.973
4	69	68	0.973
4	70	69	5.199580446802
4	71	70	3.3061698378978
4	72	71	5.3163671787967
4	73	72	8.7032317369229
4	74	73	4.3069115926909
4	75	74	0.973
4	76	75	0.973
4	77	76	3.3821313306522
4	78	77	0.973
4	79	78	0.973
4	80	79	0.973
4	81	80	1.9070329175853
4	82	81	2.1786736073662
4	83	82	7.0943195613902
4	84	83	4.8985875899959
4	85	84	12.089664928402
4	86	85	10.76915524644
4	87	86	0.973
4	88	87	0.973
4	89	88	8.7584903755723
4	90	89	0.973
4	91	90	6.3094680296479
4	92	91	6.5195365770517
4	93	92	1.580856349522
4	94	93	0.973
4	95	94	0.973
4	96	95	8.2173569938991
4	97	96	0.973
4	98	97	0.973
4	99	98	0.973
4	100	99	0.973
4	101	100	0.973
4	102	101	0.973
4	103	102	5.627750948281
4	104	103	8.4632165731112
4	105	104	6.3500075391278
4	106	105	3.0650563573311
4	107	106	3.6206809075336
4	108	107	0.973
4	109	108	0.973
4	110	109	0.973
4	111	110	0.973
4	112	111	0.973
4	113	112	2.1902241145238
4	114	113	6.4088696972377
4	115	114	4.9309368578398
4	116	115	6.5206942092627
4	117	116	2.8014150109785
4	118	117	10.340723639616
4	119	118	8.2578578978936
4	120	119	0.973
4	121	120	0.973
4	122	121	1.9129511981748
4	123	122	0.973
4	124	123	0.973
4	125	124	0.973
4	126	125	1.4147982087727
4	127	126	6.604361215592
4	128	127	9.8765561845994
4	129	128	4.3573671536873
4	130	129	2.6266781568878
4	131	130	4.3048900892486
4	132	131	0.973
4	133	132	2.49748160782
4	134	133	4.471867115444
4	135	134	0.973
4	136	135	0.973
4	137	136	1.8035420379531
4	138	137	1.5296935632045
4	139	138	9.9970690573848
4	140	139	13.355768429537
4	141	140	0.973
4	142	141	3.8590084425976
4	143	142	0.973
4	144	143	0.973
4	145	144	0.973
4	146	145	0.973
4	147	146	2.1017382973871
4	148	147	0.973
4	149	148	3.2443726684619
4	150	149	7.9637901090871
4	151	150	8.6918881308271
4	152	151	8.9668698391774
4	153	152	2.3344248041396
4	154	153	4.9838830342371
4	155	154	0.973
4	156	155	0.973
4	157	156	0.973
4	158	157	0.973
4	159	158	0.973
4	160	159	0.973
4	161	160	3.8832084866505
4	162	161	2.9866254857893
4	163	162	1.4717840773555
4	164	163	3.3806728796205
4	165	164	5.8432191049639
4	166	165	1.7540041725175
4	167	166	10.071472295987
4	168	167	5.7338314744784
4	169	168	5.7151307082456
4	170	169	4.1532955501685
4	171	170	0.973
4	172	171	5.571704508414
4	173	172	0.973
4	174	173	8.6636532019518
4	175	174	0.973
4	176	175	0.973
4	177	176	0.973
4	178	177	0.973
4	179	178	0.973
4	180	179	0.973
4	181	180	3.9155640254927
4	182	181	5.8215300677572
4	183	182	8.4394369728321
4	184	183	6.5498165806322
4	185	184	0.973
4	186	185	0.973
4	187	186	0.973
4	188	187	0.973
4	189	188	0.973
4	190	189	1.5899252821115
4	191	190	5.6157738247216
4	192	191	8.4169461060309
4	193	192	11.82636221869
4	194	193	7.7595651102444
4	195	194	0.973
4	196	195	0.973
4	197	196	0.973
4	198	197	0.973
4	199	198	3.1944185615
4	200	199	4.0683551704744
4	201	200	2.6002274641355
3	9	8	0.27337296586484
3	10	9	0.79392232513055
3	11	10	1.1932028799783
3	12	11	0.45350310381036
3	13	12	3.4718356791418
3	14	13	2.4159242431633
3	15	14	0.14838690496981
3	16	15	2.3820105796913
3	17	16	0.78495869533755
3	18	17	-0.49778681981843
3	19	18	1.5187592238653
3	20	19	0.33624939550646
3	21	20	0.18861036759336
3	22	21	-1.1652711768402
3	23	22	-1.5757611178347
3	24	23	-0.55783228540687
3	25	24	-2.2
3	26	25	-1.6579715533182
3	27	26	-2.2
3	28	27	-2.2
3	29	28	0.87405293434858
3	30	29	1.4415422169259
3	31	30	0.39405903336592
3	32	31	0.35800196498167
3	33	32	0.15955704159569
3	34	33	0.3796424488537
3	35	34	0.64456883829553
3	36	35	3.1925122761533
3	37	36	-2.2
3	38	37	-2.2
3	39	38	-2.1009037493512
3	40	39	-0.65195847202387
3	41	40	3.3294629306765
3	42	41	0.70254845439922
3	43	42	2.4881161889061
3	44	43	1.1205523875542
3	45	44	0.9766177739948
3	46	45	1.7649038927315
3	47	46	-2.0226231085137
3	48	47	-2.2
3	49	48	2.7703881204361
3	50	49	0.2202921535731
3	51	50	0.77098671812564
3	52	51	-0.87088954588398
3	53	52	1.0848901425488
3	54	53	-0.75929391547106
3	55	54	-2.2
3	56	55	-1.1244526292328
3	57	56	0.78244663055577
3	58	57	-2.2
3	59	58	0.33198641275521
3	60	59	0.45456553669646
3	61	60	1.0637690813746
3	62	61	1.4620307397563
3	63	62	1.9836283948971
3	64	63	-1.1349276100804
3	65	64	-1.3259644148231
3	66	65	-2.2
3	67	66	-2.1411163233453
3	68	67	-2.2
3	69	68	-0.81653977351382
3	70	69	2.4222276672954
3	71	70	1.0041106732097
3	72	71	1.6821298252326
3	73	72	2.4677922781557
3	74	73	0.81095819838811
3	75	74	-1.0173380554398
3	76	75	-2.2
3	77	76	0.71512465108341
3	78	77	-2.2
3	79	78	-1.5366745131789
3	80	79	-2.2
3	81	80	0.52913807425648
3	82	81	0.65246842207853
3	83	82	2.8738642684184
3	84	83	1.4302575100446
3	85	84	3.3097287340788
3	86	85	2.3635111194686
3	87	86	-0.87693243520334
3	88	87	-1.5997566572623
3	89	88	1.9012379883789
3	90	89	-2.2
3	91	90	1.3089024280664
3	92	91	1.2240568739362
3	93	92	-0.15057484619319
3	94	93	-0.36177777906414
3	95	94	-0.68777515890542
3	96	95	1.6361669129692
3	97	96	-2.146740643386
3	98	97	-0.87083988760714
3	99	98	-1.1864703239693
3	100	99	-2.2
3	101	100	-2.2
3	102	101	-2.2
3	103	102	2.4686724831117
3	104	103	2.8637777987169
3	105	104	1.642946365173
3	106	105	0.42668254464843
3	107	106	0.57463869770565
3	108	107	-2.2
3	109	108	-1.7673284966033
3	110	109	-2.2
3	111	110	-2.2
3	112	111	-2.2
3	113	112	1.2236901477445
3	114	113	3.2339623117587
3	115	114	1.7309131836519
3	116	115	1.9858107898617
3	117	116	0.42489483370446
3	118	117	2.6440792727517
3	119	118	1.7097749470694
3	120	119	-2.2
3	121	120	-2.2
3	122	121	0.073266925145425
3	123	122	-2.2
3	124	123	-1.1694184467662
3	125	124	-2.2
3	126	125	0.042365928762593
3	127	126	2.7230239001801
3	128	127	3.1083669121144
3	129	128	0.89461197599303
3	130	129	0.26855525618885
3	131	130	0.77417111434553
3	132	131	-0.73960472457111
3	133	132	0.2119818252977
3	134	133	0.80266170729649
3	135	134	-2.2
3	136	135	-2.2
3	137	136	0.09901684804953
3	138	137	-0.029846377863024
3	139	138	2.9150127713801
3	140	139	3.1506295831641
3	141	140	-0.66190305398542
3	142	141	0.49750175056698
3	143	142	-2.2
3	144	143	-2.2
3	145	144	-2.2
3	146	145	-1.8475132721888
3	147	146	0.40767037490772
3	148	147	-2.2
3	149	148	1.3344732414698
3	150	149	3.0220939753344
3	151	150	2.5388015465578
3	152	151	2.156069966848
3	153	152	0.10457456114518
3	154	153	0.83805898786522
3	155	154	-0.41390108251962
3	156	155	-2.2
3	157	156	-2.2
3	158	157	-2.2
3	159	158	-2.2
3	160	159	-2.2
3	161	160	2.0722946515307
3	162	161	1.0613616359187
3	163	162	0.030159514513798
3	164	163	1.0850677051349
3	165	164	1.917519462877
3	166	165	0.058069993392564
3	167	166	2.835425113677
3	168	167	1.1847917170266
3	169	168	1.0603361321846
3	170	169	0.56627179728821
3	171	170	-1.8374199733371
3	172	171	1.0422638370655
3	173	172	-1.667743723141
3	174	173	1.9144704987993
3	175	174	-1.5403842752877
3	176	175	-1.152818425023
3	177	176	-2.2
3	178	177	-2.2
3	179	178	-1.689302545332
3	180	179	-1.1814681160497
3	181	180	1.7127562897513
3	182	181	2.1582776337164
3	183	182	2.5772990991827
3	184	183	1.5695843279862
3	185	184	-1.4578036825289
3	186	185	-2.2
3	187	186	-2.2
3	188	187	-0.40941658963169
3	189	188	-2.2
3	190	189	0.27282301918603
3	191	190	2.5656054816209
3	192	191	2.9125748109072
3	193	192	3.2018975245301
3	194	193	1.6278026525692
3	195	194	-1.6924544984013
3	196	195	-0.56580670275726
3	197	196	-2.2
3	198	197	-2.0008726431988
3	199	198	0.75789016031194
3	200	199	1.0186560709262
3	201	200	0.36974399047904
2	8	7	1.7011983118718
2	9	8	1.9745712777367
2	10	9	2.7684936028672
2	11	10	3.9616964828456
2	12	11	4.4151995866559
2	13	12	7.8870352657977
2	14	13	10.302959508961
2	15	14	10.451346413931
2	16	15	12.833356993622
2	17	16	13.61831568896
2	18	17	13.120528869141
2	19	18	14.639288093007
2	20	19	14.975537488513
2	21	20	15.164147856106
2	22	21	13.998876679266
2	23	22	12.423115561432
2	24	23	11.865283276025
2	25	24	9.6652832760247
2	26	25	8.0073117227065
2	27	26	5.8073117227065
2	28	27	3.6073117227065
2	29	28	4.4813646570551
2	30	29	5.922906873981
2	31	30	6.3169659073469
2	32	31	6.6749678723285
2	33	32	6.8345249139242
2	34	33	7.2141673627779
2	35	34	7.8587362010735
2	36	35	11.051248477227
2	37	36	8.8512484772268
2	38	37	6.6512484772268
2	39	38	4.5503447278755
2	40	39	3.8983862558517
2	41	40	7.2278491865282
2	42	41	7.9303976409274
2	43	42	10.418513829834
2	44	43	11.539066217388
2	45	44	12.515683991383
2	46	45	14.280587884114
2	47	46	12.2579647756
2	48	47	10.0579647756
2	49	48	12.828352896037
2	50	49	13.04864504961
2	51	50	13.819631767735
2	52	51	12.948742221851
2	53	52	14.0336323644
2	54	53	13.274338448929
2	55	54	11.074338448929
2	56	55	9.9498858196962
2	57	56	10.732332450252
2	58	57	8.532332450252
2	59	58	8.8643188630072
2	60	59	9.3188843997037
2	61	60	10.382653481078
2	62	61	11.844684220835
2	63	62	13.828312615732
2	64	63	12.693385005651
2	65	64	11.367420590828
2	66	65	9.1674205908282
2	67	66	7.0263042674829
2	68	67	4.8263042674829
2	69	68	4.0097644939691
2	70	69	6.4319921612645
2	71	70	7.4361028344741
2	72	71	9.1182326597067
2	73	72	11.586024937862
2	74	73	12.39698313625
2	75	74	11.379645080811
2	76	75	9.1796450808106
2	77	76	9.8947697318941
2	78	77	7.6947697318941
2	79	78	6.1580952187152
2	80	79	3.9580952187152
2	81	80	4.4872332929717
2	82	81	5.1397017150502
2	83	82	8.0135659834686
2	84	83	9.4438234935132
2	85	84	12.753552227592
2	86	85	15.117063347061
2	87	86	14.240130911857
2	88	87	12.640374254595
2	89	88	14.541612242974
2	90	89	12.341612242974
2	91	90	13.65051467104
2	92	91	14.874571544976
2	93	92	14.723996698783
2	94	93	14.362218919719
2	95	94	13.674443760814
2	96	95	15.310610673783
2	97	96	13.163870030397
2	98	97	12.29303014279
2	99	98	11.10655981882
2	100	99	8.9065598188204
2	101	100	6.7065598188204
2	102	101	4.5065598188204
2	103	102	6.9752323019321
2	104	103	9.8390101006491
2	105	104	11.481956465822
2	106	105	11.90863901047
2	107	106	12.483277708176
2	108	107	10.283277708176
2	109	108	8.5159492115728
2	110	109	6.3159492115728
2	111	110	4.1159492115728
2	112	111	1.9159492115728
2	113	112	3.1396393593173
2	114	113	6.373601671076
2	115	114	8.1045148547278
2	116	115	10.09032564459
2	117	116	10.515220478294
2	118	117	13.159299751046
2	119	118	14.869074698115
2	120	119	12.669074698115
2	121	120	10.469074698115
2	122	121	10.542341623261
2	123	122	8.3423416232606
2	124	123	7.1729231764944
2	125	124	4.9729231764944
2	126	125	5.015289105257
2	127	126	7.7383130054371
2	128	127	10.846679917552
2	129	128	11.741291893545
2	130	129	12.009847149733
2	131	130	12.784018264079
2	132	131	12.044413539508
2	133	132	12.256395364806
2	134	133	13.059057072102
2	135	134	10.859057072102
2	136	135	8.659057072102
2	137	136	8.7580739201515
2	138	137	8.7282275422885
2	139	138	11.643240313669
2	140	139	14.793869896833
2	141	140	14.131966842847
2	142	141	14.629468593414
2	143	142	12.429468593414
2	144	143	10.229468593414
2	145	144	8.0294685934143
2	146	145	6.1819553212255
2	147	146	6.5896256961332
2	148	147	4.3896256961332
2	149	148	5.7240989376031
2	150	149	8.7461929129375
2	151	150	11.284994459495
2	152	151	13.441064426343
2	153	152	13.545638987488
2	154	153	14.383697975354
2	155	154	13.969796892834
2	156	155	11.769796892834
2	157	156	9.5697968928341
2	158	157	7.3697968928341
2	159	158	5.1697968928341
2	160	159	2.9697968928341
2	161	160	5.0420915443648
2	162	161	6.1034531802835
2	163	162	6.1336126947973
2	164	163	7.2186803999322
2	165	164	9.1361998628091
2	166	165	9.1942698562017
2	167	166	12.029694969879
2	168	167	13.214486686905
2	169	168	14.27482281909
2	170	169	14.841094616378
2	171	170	13.003674643041
2	172	171	14.045938480107
2	173	172	12.378194756966
2	174	173	14.292665255765
2	175	174	12.752280980477
2	176	175	11.599462555454
2	177	176	9.3994625554542
2	178	177	7.1994625554542
2	179	178	5.5101600101222
2	180	179	4.3286918940725
2	181	180	6.0414481838238
2	182	181	8.1997258175401
2	183	182	10.777024916723
2	184	183	12.346609244709
2	185	184	10.88880556218
2	186	185	8.6888055621802
2	187	186	6.4888055621802
2	188	187	6.0793889725485
2	189	188	3.8793889725485
2	190	189	4.1522119917345
2	191	190	6.7178174733554
2	192	191	9.6303922842626
2	193	192	12.832289808793
2	194	193	14.460092461362
2	195	194	12.767637962961
2	196	195	12.201831260203
2	197	196	10.001831260203
2	198	197	8.0009586170045
2	199	198	8.7588487773165
2	200	199	9.7775048482427
2	201	200	10.147248838722
1	7	6	26.914836471754
1	8	7	26.909778399469
1	9	8	26.90390752352
1	10	9	26.895676125295
1	11	10	26.883897047546
1	12	11	26.870769595851
1	13	12	26.847319540552
1	14	13	26.816686360644
1	15	14	26.785611990731
1	16	15	26.7474553297
1	17	16	26.706964797423
1	18	17	26.667954305246
1	19	18	26.624428176129
1	20	19	29.990958018618
1	21	20	38.147431486675
1	22	21	45.677130306584
1	23	22	52.359260646445
1	24	23	58.741344832791
1	25	24	63.940095685805
1	26	25	68.247058809382
1	27	26	71.370688599625
1	28	27	73.310985056536
1	29	28	76.569534057938
1	30	29	82.492440931919
1	31	30	88.809406839266
1	32	31	95.484374711594
1	33	32	102.31889962552
1	34	33	109.5330669883
1	35	34	117.39180318937
1	36	35	128.4430516666
1	37	36	137.29430014382
1	38	37	143.94554862105
1	39	38	148.49589334893
1	40	39	151.34308150931
1	41	40	155.8617521475
1	42	41	160.8196385179
1	43	42	167.33303293462
1	44	43	174.54696869379
1	45	44	182.37146147292
1	46	45	191.29932804881
1	47	46	198.9627012164
1	48	47	202.03249652057
1	49	48	202.30745994064
1	50	49	202.58714511139
1	51	50	202.88335564176
1	52	51	203.16089949137
1	53	52	203.46169691893
1	54	53	203.74621961087
1	55	54	203.98358741636
1	56	55	204.19685366001
1	57	56	204.42689089548
1	58	57	206.31905286067
1	59	58	212.8894297205
1	60	59	219.82471589755
1	61	60	227.55167870554
1	62	61	236.36671183879
1	63	62	246.65799792222
1	64	63	256.10464988117
1	65	64	264.56449459121
1	66	65	271.3870585995
1	67	66	276.61616422759
1	68	67	280.20798915393
1	69	68	283.66460213658
1	70	69	289.38146473459
1	71	70	295.9907977536
1	72	71	304.09523599689
1	73	72	314.39308944047
1	74	73	325.41173614323
1	75	74	335.52615570564
1	76	75	343.68517833966
1	77	76	352.47981576738
1	78	77	359.3190562667
1	79	78	364.79247466464
1	80	79	366.20432218086
1	81	80	366.68557641022
1	82	81	367.23680765372
1	83	82	368.09625985287
1	84	83	369.10910667869
1	85	84	370.47692077438
1	86	85	372.0982206258
1	87	86	373.62546977475
1	88	87	374.98114557172
1	89	88	376.54072848988
1	90	89	377.86436216372
1	91	90	379.21059215709
1	92	91	373.31997242551
1	93	92	367.4833386022
1	94	93	361.79011451098
1	95	94	356.36952643275
1	96	95	350.30035717509
1	97	96	345.08216196377
1	98	97	340.20917014027
1	99	98	335.80649849986
1	100	99	332.27591306499
1	101	100	329.61741383564
1	102	101	326.39357288388
1	103	102	319.88211707871
1	104	103	310.69729331029
1	105	104	299.97876110264
1	106	105	288.86191606296
1	107	106	277.20863950069
1	108	107	267.6090870513
1	109	108	259.65935512411
1	110	109	253.76334730979
1	111	110	249.86791687687
1	112	111	248.83673662181
1	113	112	247.68250558299
1	114	113	245.33936739546
1	115	114	242.3598906055
1	116	115	238.65036676599
1	117	116	234.78463810511
1	118	117	229.94686201571
1	119	118	224.48051841028
1	120	119	219.82296460354
1	121	120	215.97420059551
1	122	121	212.09850134128
1	123	122	209.03159188574
1	124	123	206.39459775301
1	125	124	204.56639341898
1	126	125	202.72125979775
1	127	126	202.01649287318
1	128	127	202.24898103676
1	129	128	202.50064434859
1	130	129	202.75806388433
1	131	130	203.03207703416
1	132	131	203.29023746726
1	133	132	203.55294152714
1	134	133	203.83284986959
1	135	134	204.06560332558
1	136	135	204.25120189513
1	137	136	204.43892279569
1	138	137	201.04402251034
1	139	138	192.20397997542
1	140	139	180.97184565363
1	141	140	170.24225624147
1	142	141	159.13494237136
1	143	142	149.69796193532
1	144	143	141.93131493335
1	145	144	135.83500136545
1	146	145	131.14139833774
1	147	146	126.13827464762
1	148	147	122.34575907857
1	149	148	117.64380322402
1	150	149	110.45940382416
1	151	150	101.18955256095
1	152	151	90.14863725536
1	153	152	79.021821098757
1	154	153	67.206596791385
1	155	154	55.731363920111
1	156	155	46.063280609454
1	157	156	38.202346859415
1	158	157	32.148562669994
1	159	158	27.901928041191
1	160	159	26.926805527595
1	161	160	26.911814175134
1	162	161	26.893667138919
1	163	162	26.875430431204
1	164	163	26.853967555882
1	165	164	26.826803433396
1	166	165	26.799466654834
1	167	166	26.763699474547
1	168	167	26.724409623149
1	169	168	26.681967137067
1	170	169	26.637840988554
1	171	170	26.610792168639
1	172	171	34.058881354025
1	173	172	40.716849746029
1	174	173	48.404571209357
1	175	174	55.263752645826
1	176	175	61.502857505199
1	177	176	66.558629031239
1	178	177	70.431067223945
1	179	178	73.394865411208
1	180	179	76.572807869839
1	181	180	82.614256053663
1	182	181	90.813981871203
1	183	182	101.59100678793
1	184	183	113.93761603264
1	185	184	124.82642159482
1	186	185	133.515227157
1	187	186	140.00403271918
1	188	187	146.08342169172
1	189	188	149.81397244525
1	190	189	152.41884705184
1	191	190	156.61865861212
1	192	191	162.63933913908
1	193	192	170.66176596112
1	194	193	179.70185431166
1	195	194	187.68386241578
1	196	195	195.3121423127
1	197	196	201.49711172465
1	198	197	202.07762730234
1	199	198	202.26536481122
1	200	199	202.47493623435
1	201	200	202.6924327647
0	7	6	100.98045950086
0	8	7	102.68181108765
0	9	8	104.65656027071
0	10	9	107.42530330989
0	11	10	111.38735673449
0	12	11	115.80295412271
0	13	12	123.69069999624
0	14	13	133.99458778338
0	15	14	144.44687584489
0	16	15	157.28138910096
0	17	16	170.90093177575
0	18	17	184.02264278102
0	19	18	198.66324984764
0	20	19	212.66305717612
0	21	20	225.44730484857
0	22	21	237.24916198568
0	23	22	247.72256198863
0	24	23	257.72567733304
0	25	24	265.8740663093
0	26	25	272.62469003211
0	27	26	277.52058738676
0	28	27	280.56175837325
0	29	28	283.04
0	30	29	283.04
0	31	30	283.04
0	32	31	283.04
0	33	32	283.04
0	34	33	283.04
0	35	34	283.04
0	36	35	283.04
0	37	36	283.04
0	38	37	283.04
0	39	38	283.04
0	40	39	280.62601469562
0	41	40	274.98503579632
0	42	41	268.79575256683
0	43	42	260.66461768016
0	44	43	251.65894706224
0	45	44	241.8910745619
0	46	45	230.74578184134
0	47	46	221.17904644565
0	48	47	212.06855514766
0	49	48	199.24347562568
0	50	49	186.19816016143
0	51	50	172.38205470954
0	52	51	159.43661658113
0	53	52	145.40656513849
0	54	53	132.13561386446
0	55	54	121.06410122274
0	56	55	111.1167542869
0	57	56	100.38716037516
0	58	57	92.293125424384
0	59	58	86.345427539945
0	60	59	80.119833117416
0	61	60	73.183574781074
0	62	61	65.270588970863
0	63	62	56.032416009277
0	64	63	47.552445284807
0	65	64	39.958301265695
0	66	65	33.833894088689
0	67	66	29.139885795161
0	68	67	25.915614343739
0	69	68	25.208344445186
0	70	69	28.155123462611
0	71	70	31.561929822857
0	72	71	35.739393974546
0	73	72	41.047462505455
0	74	73	46.727066719727
0	75	74	51.94058354455
0	76	75	56.146183432319
0	77	76	60.679413432785
0	78	77	64.204726496196
0	79	78	67.026021255711
0	80	79	70.436881287864
0	81	80	74.898365484917
0	82	81	80.008574043759
0	83	82	87.976155772412
0	84	83	97.365787762811
0	85	84	110.04615626712
0	86	85	125.07647335235
0	87	86	139.23489010477
0	88	87	151.80273008537
0	89	88	166.26089817824
0	90	89	178.53169053362
0	91	90	192.09959782077
0	92	91	205.7592443545
0	93	92	219.27694895388
0	94	93	232.46251512319
0	95	94	245.01665345268
0	96	95	259.07291253493
0	97	96	271.15830688104
0	98	97	282.44420659299
0	99	98	292.6408398725
0	100	99	300.81771243574
0	101	100	306.97482428271
0	102	101	309.71137834247
0	103	102	312.21188550169
0	104	103	315.73901035308
0	105	104	319.85510471409
0	106	105	324.12415781703
0	107	106	328.59920953269
0	108	107	332.28559708461
0	109	108	335.33842615888
0	110	109	337.60259106941
0	111	110	338.65319762371
0	112	111	337.09462431643
0	113	112	334.17480251752
0	114	113	328.2474398599
0	115	114	320.71035154044
0	116	115	311.32648626057
0	117	116	301.5474745783
0	118	117	289.30950522124
0	119	118	275.48146847416
0	120	119	263.69940173269
0	121	120	253.96330499684
0	122	121	244.15907101951
0	123	122	236.4008070478
0	124	123	229.73008628794
0	125	124	225.1053355337
0	126	125	220.44219019433
0	127	126	212.81501098661
0	128	127	201.97109878529
0	129	128	190.23280288355
0	130	129	178.2260202521
0	131	130	165.44526404933
0	132	131	153.40392384831
0	133	132	141.15065591279
0	134	133	128.09493108286
0	135	134	117.23864488524
0	136	135	108.58179731991
0	137	136	99.825958172389
0	138	137	92.269168822713
0	139	138	84.692324617384
0	140	139	75.065206703257
0	141	140	65.868822518227
0	142	141	56.348688830964
0	143	142	48.260206196386
0	144	143	41.603374614492
0	145	144	36.378194085283
0	146	145	32.355283701974
0	147	146	28.067081627125
0	148	147	28.792211316966
0	149	148	32.056915812989
0	150	149	37.045252953419
0	151	150	43.481579884716
0	152	151	51.147608012871
0	153	152	58.873279596469
0	154	153	67.076932950726
0	155	154	75.044520377447
0	156	155	81.757351384067
0	157	156	87.215425970587
0	158	157	91.418744137006
0	159	158	94.367305883324
0	160	159	96.95450435448
0	161	160	101.99705018225
0	162	161	108.10105327272
0	163	162	114.23521859503
0	164	163	121.45454938512
0	165	164	130.59157240316
0	166	165	139.78667064659
0	167	166	151.81744947042
0	168	167	165.03312675888
0	169	168	179.30923571391
0	170	169	194.1516674863
0	171	170	207.15475301183
0	172	171	219.03901605542
0	173	172	229.47454523994
0	174	173	241.52408302228
0	175	174	252.27498838076
0	176	175	262.05400158898
0	177	176	269.97828842903
0	178	177	276.04784890093
0	179	178	280.69323029346
0	180	179	283.04
0	181	180	283.04
0	182	181	283.04
0	183	182	283.04
0	184	183	283.04
0	185	184	283.04
0	186	185	283.04
0	187	186	283.04
0	188	187	283.04
0	189	188	282.51602755475
0	190	189	279.28305982861
0	191	190	274.04013546223
0	192	191	266.52409047215
0	193	192	256.50912278632
0	194	193	245.22373561907
0	195	194	235.25922550212
0	196	195	225.7362995396
0	197	196	217.90134017765
0	198	197	209.96352654088
0	199	198	201.2069127339
0	200	199	191.43190278356
0	201	200	181.28724318924
9	13	12	3.2711153407109
9	14	13	6.1455491215595
9	15	14	7.9951718052188
9	16	15	2.1591352730175
9	17	16	6.2116831114875
9	18	17	1.7820020477648
9	19	18	4.1032762747675
9	20	19	1.8558869270434
9	21	20	0.973
9	22	21	3.6547337254964
9	23	22	0.973
9	24	23	9.2128454692332
9	25	24	3.3390289355355
9	26	25	0.973
9	27	26	0.973
9	28	27	0.973
9	29	28	0.973
9	30	29	0.973
9	31	30	1.811688552207
9	32	31	3.6184977622965
9	33	32	0.973
9	34	33	1.4860965732955
9	35	34	3.1462686616513
9	36	35	3.5144855385421
9	37	36	1.7647876603497
9	38	37	3.7767206602674
9	39	38	3.1992806263754
9	40	39	0.973
9	41	40	0.973
9	42	41	1.6232280015701
9	43	42	0.973
9	44	43	0.973
9	45	44	0.973
9	46	45	1.2651108786996
9	47	46	1.6264668775141
9	48	47	4.8204276404075
9	49	48	3.0146898035248
9	50	49	9.2803355812905
9	51	50	10.768857343853
9	52	51	5.3170439405811
9	53	52	0.973
9	54	53	0.973
9	55	54	0.973
9	56	55	0.973
9	57	56	2.4968960764987
9	58	57	2.2566265414944
9	59	58	8.1919532368274
9	60	59	10.473500886825
9	61	60	0.973
9	62	61	7.4921579335061
9	63	62	0.973
9	64	63	11.912816686974
9	65	64	0.973
9	66	65	0.973
9	67	66	0.973
9	68	67	9.5631970348006
9	69	68	10.417842765617
9	70	69	0.973
9	71	70	2.5527133281942
9	72	71	3.6826574342109
9	73	72	0.973
9	74	73	0.973
9	75	74	0.973
9	76	75	0.973
9	77	76	0.973
9	78	77	0.973
9	79	78	3.3111663960366
9	80	79	5.9229939121481
9	81	80	7.4188513591921
9	82	81	3.8594511061521
9	83	82	6.9563653418786
9	84	83	0.973
9	85	84	0.973
9	86	85	1.315194975669
9	87	86	0.973
9	88	87	0.973
9	89	88	0.973
9	90	89	0.973
9	91	90	1.1713961279679
9	92	91	5.4390129164136
9	93	92	5.8291818128897
9	94	93	2.7445575534392
9	95	94	7.8466742344013
9	96	95	4.4979300694878
9	97	96	11.434889548941
9	98	97	0.973
9	99	98	0.973
9	100	99	11.935051034155
9	101	100	0.973
9	102	101	1.3850030082896
9	103	102	0.973
9	104	103	10.867038703059
9	105	104	2.859500341524
9	106	105	0.973
9	107	106	2.2342284150243
9	108	107	7.8206333890638
9	109	108	0.973
9	110	109	4.938297364384
9	111	110	0.973
9	112	111	0.973
9	113	112	0.973
9	114	113	0.973
9	115	114	4.5007038659725
9	116	115	3.641172890211
9	117	116	9.6812446639064
9	118	117	5.4327951709341
9	119	118	4.3024767556204
9	120	119	0.973
9	121	120	0.973
9	122	121	0.973
9	123	122	0.973
9	124	123	0.973
9	125	124	4.2928779094582
9	126	125	4.2186011454681
9	127	126	7.9935266743208
9	128	127	3.0727543377543
9	129	128	13.500627683806
9	130	129	0.973
9	131	130	3.516948109034
9	132	131	3.3473373220856
9	133	132	0.973
9	134	133	0.973
9	135	134	0.973
9	136	135	2.0178336004723
9	137	136	0.973
9	138	137	5.5050870277904
9	139	138	9.7608775390396
9	140	139	6.3000516329544
9	141	140	9.5286345986153
9	142	141	0.973
9	143	142	0.973
9	144	143	10.836851851528
9	145	144	0.973
9	146	145	0.973
9	147	146	4.2018215260947
9	148	147	0.973
9	149	148	0.973
9	150	149	1.5626828047353
9	151	150	5.7251727057516
9	152	151	1.6519717260736
9	153	152	5.0180025187388
9	154	153	6.9077387361471
9	155	154	0.973
9	156	155	0.973
9	157	156	0.973
9	158	157	0.973
9	159	158	0.973
9	160	159	0.973
9	161	160	0.973
9	162	161	1.2936000683848
9	163	162	3.2612254926771
9	164	163	3.2576576962619
9	165	164	4.4760289712708
9	166	165	3.5525590324936
9	167	166	2.7081022982447
9	168	167	8.5665913894387
9	169	168	5.1330845032628
9	170	169	0.973
9	171	170	0.973
9	172	171	0.973
9	173	172	0.973
9	174	173	0.973
9	175	174	0.973
9	176	175	3.9776957353581
9	177	176	3.8485223627306
9	178	177	6.7377100416134
9	179	178	1.9850623092376
9	180	179	9.1655284563517
9	181	180	11.806993272324
9	182	181	0.973
9	183	182	2.0708876792009
9	184	183	3.3127419321079
9	185	184	4.4737710056874
9	186	185	0.973
9	187	186	0.973
9	188	187	2.6538392738783
9	189	188	6.1064263757261
9	190	189	0.973
9	191	190	0.973
9	192	191	11.538785218014
9	193	192	1.8832803663792
9	194	193	0.973
9	195	194	0.973
9	196	195	0.973
9	197	196	0.973
9	198	197	0.973
9	199	198	5.0149024093073
9	200	199	5.0133492271033
9	201	200	5.1286564649184
8	13	12	1.9609876951123
8	14	13	2.7954998679925
8	15	14	2.7230208019027
8	16	15	0.20410786972675
8	17	16	1.5972562075692
8	18	17	-0.0068844205348455
8	19	18	0.75993532217794
8	20	19	-0.0037127395339525
8	21	20	-0.90791790140793
8	22	21	0.63048533978872
8	23	22	-0.41328187892213
8	24	23	2.1824652185896
8	25	24	0.38082197820768
8	26	25	-2.2
8	27	26	-1.2457651846537
8	28	27	-2.2
8	29	28	-2.2
8	30	29	-1.8925223250454
8	31	30	0.40480385471493
8	32	31	1.4619839706691
8	33	32	-2.2
8	34	33	0.16702717659064
8	35	34	1.324788837228
8	36	35	1.2587556361686
8	37	36	0.17341922433116
8	38	37	1.1449702016544
8	39	38	0.75197648028466
8	40	39	-2.2
8	41	40	-0.63620179837497
8	42	41	0.13314438775756
8	43	42	-0.86882657596322
8	44	43	-1.5716432248475
8	45	44	-2.2
8	46	45	0.18442302980873
8	47	46	0.70168977847788
8	48	47	2.7792703169398
8	49	48	1.0581445491407
8	50	49	3.3222935803933
8	51	50	2.9511500421213
8	52	51	1.0226273433855
8	53	52	-1.265734418761
8	54	53	-0.79017142157151
8	55	54	-2.2
8	56	55	-2.2
8	57	56	0.53651855234057
8	58	57	0.37341436045244
8	59	58	2.5531350659439
8	60	59	2.6787682177965
8	61	60	-1.0466234789268
8	62	61	1.6472289309604
8	63	62	-2.070412415429
8	64	63	2.8049841603497
8	65	64	-2.2
8	66	65	-2.2
8	67	66	-2.2
8	68	67	2.9728367964271
8	69	68	2.5928754890338
8	70	69	-1.3262588355923
8	71	70	0.22420846391469
8	72	71	0.55995948784845
8	73	72	-2.2
8	74	73	-1.2819764968612
8	75	74	-2.2
8	76	75	-1.3108613616088
8	77	76	-2.2
8	78	77	-1.6534154362744
8	79	78	2.012748354231
8	80	79	2.708606848726
8	81	80	2.5567316493252
8	82	81	0.87225344881881
8	83	82	1.7633275090484
8	84	83	-0.47462517689407
8	85	84	-1.2219730144308
8	86	85	-0.15598944587779
8	87	86	-2.14677638961
8	88	87	-2.2
8	89	88	-2.2
8	90	89	-2.0341811842518
8	91	90	-0.036332700168714
8	92	91	3.4126643768977
8	93	92	2.4292838041438
8	94	93	0.62195664516184
8	95	94	2.4343397478806
8	96	95	0.98026214598212
8	97	96	2.7460848495888
8	98	97	-0.35128650907427
8	99	98	-2.2
8	100	99	2.8286466335878
8	101	100	-1.6433259237092
8	102	101	-0.17102939309552
8	103	102	-1.5174671468558
8	104	103	2.6647735262522
8	105	104	0.24211487162393
8	106	105	-1.8718731347471
8	107	106	0.12216170481406
8	108	107	1.7153198730666
8	109	108	-2.2
8	110	109	0.98124096150513
8	111	110	-2.2
8	112	111	-2.2
8	113	112	-2.0609285017227
8	114	113	-2.2
8	115	114	2.0642186150653
8	116	115	1.2028326732107
8	117	116	3.1395215074299
8	118	117	1.2686768532731
8	119	118	0.79245935257536
8	120	119	-2.2
8	121	120	-2.2
8	122	121	-0.41608645468951
8	123	122	-2.2
8	124	123	-1.6166498708957
8	125	124	2.0058798302198
8	126	125	1.5080058862222
8	127	126	2.6006105185952
8	128	127	0.52629523281939
8	129	128	3.4009292789269
8	130	129	-2.2
8	131	130	0.55103718915314
8	132	131	0.46235343163488
8	133	132	-2.2
8	134	133	-2.2
8	135	134	-2.2
8	136	135	0.35782989313526
8	137	136	-2.2
8	138	137	2.457966904738
8	139	138	3.3068695773836
8	140	139	1.5865754093975
8	141	140	2.2312649410888
8	142	141	-1.6381627789233
8	143	142	-0.80192759423517
8	144	143	2.5885644634254
8	145	144	-2.1335796047933
8	146	145	-1.6547994913109
8	147	146	0.8974937164962
8	148	147	-1.5684046416311
8	149	148	-2.2
8	150	149	0.030317417462356
8	151	150	1.8285906643141
8	152	151	0.0086068800883368
8	153	152	1.2887928828131
8	154	153	1.7001442912733
8	155	154	-0.69734709958985
8	156	155	-0.59323686381465
8	157	156	-1.0986942831494
8	158	157	-0.86770982633656
8	159	158	-2.2
8	160	159	-2.2
8	161	160	-2.0799225596566
8	162	161	0.086304270778783
8	163	162	1.8034545420669
8	164	163	1.3315488408552
8	165	164	1.6588126387214
8	166	165	0.97829827899113
8	167	166	0.5127578061074
8	168	167	2.4672774996143
8	169	168	1.0793306727289
8	170	169	-2.2
8	171	170	-2.2
8	172	171	-2.2
8	173	172	-1.5757670003222
8	174	173	-2.2
8	175	174	-0.56169117917307
8	176	175	2.6444091944722
8	177	176	1.7159964318853
8	178	177	2.54215219256
8	179	178	0.19236554414965
8	180	179	2.7019392075017
8	181	180	2.8531789673783
8	182	181	-1.2887306100456
8	183	182	0.043967824545689
8	184	183	0.4161436612485
8	185	184	0.71623897936661
8	186	185	-0.80072935624048
8	187	186	-0.58804787520785
8	188	187	0.23215303791221
8	189	188	1.193581204745
8	190	189	-0.6424960817676
8	191	190	-1.7733293139609
8	192	191	2.7230567295337
8	193	192	-0.055636954959482
8	194	193	-2.2
8	195	194	-1.9496041228211
8	196	195	-2.2
8	197	196	-2.2
8	198	197	-2.2
8	199	198	2.4579599935096
8	200	199	1.8282886727247
8	201	200	1.5347188352607
7	12	11	2.1757604239746
7	13	12	4.1367481190868
7	14	13	6.9322479870793
7	15	14	9.655268788982
7	16	15	9.8593766587088
7	17	16	11.456632866278
7	18	17	11.449748445743
7	19	18	12.209683767921
7	20	19	12.205971028387
7	21	20	11.298053126979
7	22	21	11.928538466768
7	23	22	11.515256587846
7	24	23	13.697721806435
7	25	24	14.078543784643
7	26	25	11.878543784643
7	27	26	10.632778599989
7	28	27	8.4327785999895
7	29	28	6.2327785999895
7	30	29	4.340256274944
7	31	30	4.745060129659
7	32	31	6.2070441003281
7	33	32	4.0070441003281
7	34	33	4.1740712769187
7	35	34	5.4988601141467
7	36	35	6.7576157503153
7	37	36	6.9310349746465
7	38	37	8.0760051763008
7	39	38	8.8279816565855
7	40	39	6.6279816565855
7	41	40	5.9917798582105
7	42	41	6.1249242459681
7	43	42	5.2560976700049
7	44	43	3.6844544451574
7	45	44	1.4844544451574
7	46	45	1.6688774749661
7	47	46	2.370567253444
7	48	47	5.1498375703838
7	49	48	6.2079821195245
7	50	49	9.5302756999178
7	51	50	12.481425742039
7	52	51	13.504053085425
7	53	52	12.238318666664
7	54	53	11.448147245092
7	55	54	9.2481472450921
7	56	55	7.0481472450921
7	57	56	7.5846657974326
7	58	57	7.9580801578851
7	59	58	10.511215223829
7	60	59	13.189983441625
7	61	60	12.143359962699
7	62	61	13.790588893659
7	63	62	11.72017647823
7	64	63	14.52516063858
7	65	64	12.32516063858
7	66	65	10.12516063858
7	67	66	7.9251606385797
7	68	67	10.897997435007
7	69	68	13.490872924041
7	70	69	12.164614088448
7	71	70	12.388822552363
7	72	71	12.948782040211
7	73	72	10.748782040211
7	74	73	9.4668055433502
7	75	74	7.2668055433502
7	76	75	5.9559441817414
7	77	76	3.7559441817414
7	78	77	2.102528745467
7	79	78	4.115277099698
7	80	79	6.8238839484241
7	81	80	9.3806155977493
7	82	81	10.252869046568
7	83	82	12.016196555617
7	84	83	11.541571378722
7	85	84	10.319598364292
7	86	85	10.163608918414
7	87	86	8.0168325288038
7	88	87	5.8168325288038
7	89	88	3.6168325288038
7	90	89	1.582651344552
7	91	90	1.5463186443833
7	92	91	4.958983021281
7	93	92	7.3882668254248
7	94	93	8.0102234705867
7	95	94	10.444563218467
7	96	95	11.424825364449
7	97	96	14.170910214038
7	98	97	13.819623704964
7	99	98	11.619623704964
7	100	99	14.448270338552
7	101	100	12.804944414842
7	102	101	12.633915021747
7	103	102	11.116447874891
7	104	103	13.781221401143
7	105	104	14.023336272767
7	106	105	12.15146313802
7	107	106	12.273624842834
7	108	107	13.988944715901
7	109	108	11.788944715901
7	110	109	12.770185677406
7	111	110	10.570185677406
7	112	111	8.370185677406
7	113	112	6.3092571756833
7	114	113	4.1092571756833
7	115	114	6.1734757907486
7	116	115	7.3763084639593
7	117	116	10.515829971389
7	118	117	11.784506824662
7	119	118	12.576966177238
7	120	119	10.376966177238
7	121	120	8.1769661772376
7	122	121	7.7608797225481
7	123	122	5.5608797225481
7	124	123	3.9442298516524
7	125	124	5.9501096818721
7	126	125	7.4581155680944
7	127	126	10.05872608669
7	128	127	10.585021319509
7	129	128	13.985950598436
7	130	129	11.785950598436
7	131	130	12.336987787589
7	132	131	12.799341219224
7	133	132	10.599341219224
7	134	133	8.3993412192239
7	135	134	6.1993412192239
7	136	135	6.5571711123592
7	137	136	4.3571711123592
7	138	137	6.8151380170972
7	139	138	10.122007594481
7	140	139	11.708583003878
7	141	140	13.939847944967
7	142	141	12.301685166044
7	143	142	11.499757571809
7	144	143	14.088322035234
7	145	144	11.954742430441
7	146	145	10.29994293913
7	147	146	11.197436655626
7	148	147	9.6290320139949
7	149	148	7.4290320139949
7	150	149	7.4593494314573
7	151	150	9.2879400957714
7	152	151	9.2965469758597
7	153	152	10.585339858673
7	154	153	12.285484149946
7	155	154	11.588137050356
7	156	155	10.994900186542
7	157	156	9.8962059033923
7	158	157	9.0284960770557
7	159	158	6.8284960770557
7	160	159	4.6284960770557
7	161	160	2.5485735173991
7	162	161	2.6348777881779
7	163	162	4.4383323302448
7	164	163	5.7698811711
7	165	164	7.4286938098215
7	166	165	8.4069920888126
7	167	166	8.91974989492
7	168	167	11.387027394534
7	169	168	12.466358067263
7	170	169	10.266358067263
7	171	170	8.0663580672632
7	172	171	5.8663580672632
7	173	172	4.290591066941
7	174	173	2.090591066941
7	175	174	1.5288998877679
7	176	175	4.1733090822402
7	177	176	5.8893055141255
7	178	177	8.4314577066855
7	179	178	8.6238232508351
7	180	179	11.325762458337
7	181	180	14.178941425715
7	182	181	12.89021081567
7	183	182	12.934178640215
7	184	183	13.350322301464
7	185	184	14.06656128083
7	186	185	13.26583192459
7	187	186	12.677784049382
7	188	187	12.909937087294
7	189	188	14.103518292039
7	190	189	13.461022210272
7	191	190	11.687692896311
7	192	191	14.410749625844
7	193	192	14.355112670885
7	194	193	12.155112670885
7	195	194	10.205508548064
7	196	195	8.0055085480639
7	197	196	5.8055085480639
7	198	197	3.6055085480639
7	199	198	6.0634685415735
7	200	199	7.8917572142982
7	201	200	9.4264760495589
6	11	10	26.914836471754
6	12	11	26.90836741202
6	13	12	26.896067863598
6	14	13	26.875456620822
6	15	14	26.84674918141
6	16	15	26.817434880145
6	17	16	26.783371551504
6	18	17	26.749328691903
6	19	18	26.713026361573
6	20	19	26.676735070111
6	21	20	26.643143237226
6	22	21	26.607676819584
6	23	22	31.160176704625
6	24	23	38.527890706572
6	25	24	46.100440772554
6	26	25	52.489657505203
6	27	26	58.208803570349
6	28	27	62.744616302161
6	29	28	66.09709570064
6	30	29	68.431627484891
6	31	30	70.983894675844
6	32	31	74.322532032838
6	33	32	77.975836048703
6	34	33	82.149907325622
6	35	34	87.648767439769
6	36	35	94.406383190084
6	37	36	101.33741816473
6	38	37	109.41342334103
6	39	38	118.24140499762
6	40	39	124.8693866542
6	41	40	130.86116651241
6	42	41	136.98609075838
6	43	42	142.24218842839
6	44	43	145.92664287354
6	45	44	147.4110973187
6	46	45	149.07562316167
6	47	46	150.7530803787
6	48	47	153.97263009815
6	49	48	157.85370533947
6	50	49	163.81179548049
6	51	50	171.61487085849
6	52	51	180.05726728914
6	53	52	187.70835820051
6	54	53	194.86545369088
6	55	54	200.719763412
6	56	55	202.02573555498
6	57	56	202.18830557973
6	58	57	202.35887938255
6	59	58	202.58417718271
6	60	59	202.8668918061
6	61	60	203.12717306073
6	62	61	203.42276108498
6	63	62	203.67397180817
6	64	63	203.98530467208
6	65	64	204.24948264953
6	66	65	204.46650574053
6	67	66	207.21605151397
6	68	67	215.32654282675
6	69	68	225.36670004872
6	70	69	234.41983090841
6	71	70	243.63982185497
6	72	71	253.27654501209
6	73	72	261.27598746746
6	74	73	268.32135929627
6	75	74	273.72945042333
6	76	75	278.1619742731
6	77	76	280.95721742111
6	78	77	282.85939107783
6	79	78	286.52194627985
6	80	79	292.58712887644
6	81	80	300.92477747933
6	82	81	310.03769958886
6	83	82	320.71789678701
6	84	83	330.97623916104
6	85	84	340.14847140826
6	86	85	349.18205761759
6	87	86	356.30755293684
6	88	87	361.47765132768
6	89	88	364.69235279011
6	90	89	365.8606381741
6	91	90	366.10331751355
6	92	91	366.63516673922
6	93	92	367.42755581845
6	94	93	368.28664953424
6	95	94	369.40682535182
6	96	95	370.63213394785
6	97	96	372.15195920074
6	98	97	373.63410909619
6	99	98	374.88030974733
6	100	99	376.4298817783
6	101	100	377.80320766843
6	102	101	379.15819071489
6	103	102	375.43871784508
6	104	103	369.97580280903
6	105	104	364.41691275494
6	106	105	359.60003849145
6	107	106	354.73473898359
6	108	107	349.18948183965
6	109	108	344.51631090125
6	110	109	339.45417327791
6	111	110	335.26412186011
6	112	111	331.94615664784
6	113	112	329.44514930691
6	114	113	326.35878397488
6	115	114	320.59577666047
6	116	115	313.70991186209
6	117	116	303.89326932612
6	118	117	292.89230304243
6	119	118	281.15156726743
6	120	119	271.46455560531
6	121	120	263.83126805606
6	122	121	256.58640177273
6	123	122	251.39525960229
6	124	123	248.67163855271
6	125	124	246.48418945641
6	126	125	243.74234955232
6	127	126	240.04444271285
6	128	127	236.15305304819
6	129	128	231.01137388039
6	130	129	226.6784845113
6	131	130	222.14301638889
6	132	131	217.43757247607
6	133	132	213.54091836196
6	134	133	210.45305404654
6	135	134	208.17397952982
6	136	135	205.76335539164
6	137	136	204.16152105215
6	138	137	201.99587408806
6	139	138	202.12976839
6	140	139	202.3807306182
6	141	140	202.67951786683
6	142	141	202.94319267008
6	143	142	203.18967892577
6	144	143	203.49164857388
6	145	144	203.7478869929
6	146	145	203.96865637461
6	147	146	204.20866267189
6	148	147	204.41505172246
6	149	148	205.38280162307
6	150	149	210.61165696421
6	151	150	217.52391381778
6	152	151	224.44257607075
6	153	152	232.3203818308
6	154	153	241.46346642645
6	155	154	250.0875724091
6	156	155	258.27018054234
6	157	156	265.63512006335
6	158	157	272.35429387827
6	159	158	277.43618699144
6	160	159	280.88079940285
6	161	160	283.16940530334
6	162	161	285.51132890957
6	163	162	289.45619318493
6	164	163	294.58456042094
6	165	164	301.18730817446
6	166	165	308.65958385972
6	167	166	316.58760729001
6	168	167	326.70858837678
6	169	168	337.78889668272
6	170	169	346.91380806027
6	171	170	354.08332250941
6	172	171	359.29744003015
6	173	172	363.11098939075
6	174	173	364.96914182295
6	175	174	365.93775052737
6	176	175	366.41269543936
6	177	176	367.04432143284
6	178	177	367.94859237576
6	179	178	368.87349445721
6	180	179	370.08817859059
6	181	180	371.60886518817
6	182	181	372.9913358705
6	183	182	374.3785220869
6	184	183	375.81033956803
6	185	184	377.31897343368
6	186	185	378.74172935091
6	187	186	376.35907239791
6	188	187	371.24153692151
6	189	188	365.65086248881
6	190	189	360.31487531521
6	191	190	355.68184088369
6	192	191	349.96937908366
6	193	192	344.27897192952
6	194	193	339.46065098091
6	195	194	335.41515860582
6	196	195	332.24175243627
6	197	196	329.94043247224
6	198	197	327.99540860131
6	199	198	322.33509425972
6	200	199	314.96805240338
6	201	200	306.1683336932
5	11	10	100.98045950086
5	12	11	103.15641595694
5	13	12	107.29353678962
5	14	13	114.22640935981
5	15	14	123.8825480712
5	16	15	133.74281304207
5	17	16	145.20047813043
5	18	17	156.65125817798
5	19	18	168.86204201651
5	20	19	181.06911278101
5	21	20	192.36818384232
5	22	21	204.29779704901
5	23	22	214.49566060746
5	24	23	226.04362688842
5	25	24	237.91264797144
5	26	25	247.92694268631
5	27	26	256.89098579368
5	28	27	264.00030253288
5	29	28	269.25489290393
5	30	29	272.91397824834
5	31	30	276.91433649424
5	32	31	282.14723120388
5	33	32	283.04
5	34	33	283.04
5	35	34	283.04
5	36	35	283.04
5	37	36	283.04
5	38	37	283.04
5	39	38	283.04
5	40	39	283.04
5	41	40	283.04
5	42	41	283.04
5	43	42	283.04
5	44	43	283.04
5	45	44	283.04
5	46	45	282.97812561278
5	47	46	281.362555195
5	48	47	277.34336161201
5	49	48	272.49833852979
5	50	49	265.06042958339
5	51	50	255.31929395272
5	52	51	244.78004824573
5	53	52	235.22864566663
5	54	53	226.29393281097
5	55	54	219.13181924729
5	56	55	212.38390589979
5	57	56	204.8011754598
5	58	57	196.84512594242
5	59	58	186.33659283526
5	60	59	173.14997504391
5	61	60	161.00971366758
5	62	61	147.22264367897
5	63	62	135.50545780459
5	64	63	120.98400350963
5	65	64	108.66198784697
5	66	65	98.539410816615
5	67	66	91.438245747839
5	68	67	84.157705595385
5	69	68	75.14496333692
5	70	69	67.0182444752
5	71	70	58.741740413603
5	72	71	50.091148584108
5	73	72	42.910293596718
5	74	73	36.585878649396
5	75	74	31.731200544179
5	76	75	27.752259365348
5	77	76	25.243055028623
5	78	77	24.806021654185
5	79	78	26.681173575253
5	80	79	29.807495488028
5	81	80	34.10516882483
5	82	81	38.802459900026
5	83	82	44.307609003378
5	84	83	49.595311400119
5	85	84	54.323174116011
5	86	85	58.979571193493
5	87	86	62.652435414996
5	88	87	65.317382699445
5	89	88	66.974413046839
5	90	89	67.978960946678
5	91	90	69.500513980141
5	92	91	74.4310408635
5	93	92	81.776911588981
5	94	93	89.741169985098
5	95	94	100.12579915455
5	96	95	111.48506543059
5	97	96	125.5746586944
5	98	97	139.3149812369
5	99	98	150.86792804192
5	100	99	165.23328985432
5	101	100	177.96475564204
5	102	101	190.52617345482
5	103	102	200.85220794105
5	104	103	213.50437594478
5	105	104	226.37882308784
5	106	105	237.53475394754
5	107	106	248.80283817651
5	108	107	261.64571135797
5	109	108	272.46882382316
5	110	109	284.19278717346
5	111	110	293.89698980749
5	112	111	301.58143172525
5	113	112	307.37379072174
5	114	113	309.72473786123
5	115	114	311.93782837118
5	116	115	314.58211480127
5	117	116	318.35186855146
5	118	117	322.57642228781
5	119	118	327.08505979351
5	120	119	330.80503313548
5	121	120	333.73634231371
5	122	121	336.51849127565
5	123	122	338.51197607385
5	124	123	336.67698094616
5	125	124	331.14346006469
5	126	125	324.20751426891
5	127	126	314.85303614707
5	128	127	305.00911063411
5	129	128	292.00236725939
5	130	129	281.04159389027
5	131	130	269.56836344799
5	132	131	257.66515061792
5	133	132	247.80790779346
5	134	133	239.99663497462
5	135	134	234.2313321614
5	136	135	228.13325242614
5	137	136	224.0811426965
5	138	137	217.64855174256
5	139	138	207.53151723808
5	140	139	195.82592187978
5	141	140	181.88963092587
5	142	141	169.59108474558
5	143	142	158.09426153395
5	144	143	144.00953437548
5	145	144	132.05784240241
5	146	145	121.76052767021
5	147	146	110.56594823241
5	148	147	100.93937323092
5	149	148	93.643435280285
5	150	149	88.390114522618
5	151	150	82.185192819881
5	152	151	75.974521185888
5	153	152	68.902855742026
5	154	153	60.695388160991
5	155	154	52.95379181814
5	156	155	45.608514600217
5	157	156	38.997233503273
5	158	157	32.965636542704
5	159	158	28.403776424241
5	160	159	25.311653147882
5	161	160	24.953093315277
5	162	161	26.16024692881
5	163	162	28.193642532413
5	164	163	30.837079331113
5	165	164	34.240491290707
5	166	165	38.092104797976
5	167	166	42.17863524951
5	168	167	47.395534237531
5	169	168	53.106922164519
5	170	169	57.810393154453
5	171	170	61.505947207332
5	172	171	64.193584323158
5	173	172	66.159293144223
5	174	173	67.117085028233
5	175	174	68.223585618614
5	176	175	72.368612882469
5	177	176	78.224123788052
5	178	177	86.607199251371
5	179	178	95.181536407418
5	180	179	106.44230823013
5	181	180	120.53988662011
5	182	181	133.35612952436
5	183	182	146.21608795255
5	184	183	159.48980208434
5	185	184	173.47564520054
5	186	185	186.66535378668
5	187	186	198.72065723074
5	188	187	210.57292258455
5	189	188	223.52098267883
5	190	189	235.87918443387
5	191	190	246.60934033194
5	192	191	259.83946123478
5	193	192	273.01850334852
5	194	193	284.177784746
5	195	194	293.54718713459
5	196	195	300.89682880691
5	197	196	306.22670976297
5	198	197	309.09624682669
5	199	198	311.26990152974
5	200	199	314.09896794058
5	201	200	317.47820605451
14	16	15	3.4129118125749
14	17	16	5.8299457005655
14	18	17	4.8112153845333
14	19	18	1.8086333417163
14	20	19	9.1101053402612
14	21	20	8.1455180645886
14	22	21	3.3433009242889
14	23	22	3.3772320756562
14	24	23	0.973
14	25	24	0.973
14	26	25	9.4684637348313
14	27	26	4.6532579021541
14	28	27	0.973
14	29	28	0.973
14	30	29	0.973
14	31	30	0.973
14	32	31	1.5632951335479
14	33	32	2.4618671089472
14	34	33	0.973
14	35	34	0.973
14	36	35	0.973
14	37	36	0.973
14	38	37	3.181967250669
14	39	38	2.0489479833596
14	40	39	6.2107996229325
14	41	40	2.1612117269895
14	42	41	0.973
14	43	42	0.973
14	44	43	3.9008148520178
14	45	44	0.973
14	46	45	0.973
14	47	46	0.973
14	48	47	1.7898827132886
14	49	48	3.6859672177186
14	50	49	0.973
14	51	50	2.2898483398404
14	52	51	1.9218327263983
14	53	52	5.2646287861063
14	54	53	2.6086602017038
14	55	54	8.8982191934304
14	56	55	12.656323741978
14	57	56	0.973
14	58	57	3.4297501300936
14	59	58	0.973
14	60	59	0.973
14	61	60	10.931076055174
14	62	61	7.0682832022005
14	63	62	0.973
14	64	63	9.5474126539489
14	65	64	2.5273308304569
14	66	65	2.3020073163224
14	67	66	0.973
14	68	67	0.973
14	69	68	0.973
14	70	69	0.973
14	71	70	0.973
14	72	71	9.0411286160962
14	73	72	9.9745029124228
14	74	73	0.973
14	75	74	0.973
14	76	75	6.6516925589546
14	77	76	0.973
14	78	77	0.973
14	79	78	0.973
14	80	79	0.973
14	81	80	0.973
14	82	81	0.973
14	83	82	1.7363793248775
14	84	83	0.973
14	85	84	2.6743876154557
14	86	85	4.6946910251906
14	87	86	3.8545156938763
14	88	87	8.5758411106559
14	89	88	13.583167146075
14	90	89	0.973
14	91	90	0.973
14	92	91	0.973
14	93	92	2.452845579658
14	94	93	0.973
14	95	94	0.973
14	96	95	1.3235963327392
14	97	96	0.973
14	98	97	5.043724506599
14	99	98	1.8412909666058
14	100	99	6.9317744203793
14	101	100	3.9409971987541
14	102	101	2.8312216987612
14	103	102	3.4921396229506
14	104	103	8.1397878609794
14	105	104	4.6106229898105
14	106	105	0.973
14	107	106	9.7219079202471
14	108	107	0.973
14	109	108	9.9174715323654
14	110	109	0.973
14	111	110	1.7374389930087
14	112	111	7.9579698676635
14	113	112	0.973
14	114	113	2.1943452791934
14	115	114	6.7169552980688
14	116	115	0.973
14	117	116	0.973
14	118	117	0.973
14	119	118	0.973
14	120	119	0.973
14	121	120	0.973
14	122	121	2.331869843931
14	123	122	4.6774781442421
14	124	123	1.7155220855295
14	125	124	3.0285364699256
14	126	125	9.9562832380396
14	127	126	6.1507441371921
14	128	127	0.973
14	129	128	3.6159619412704
14	130	129	0.973
14	131	130	0.973
14	132	131	0.973
14	133	132	0.973
14	134	133	2.2602727572156
14	135	134	2.9170670885917
14	136	135	5.7427559217515
14	137	136	4.1412837740282
14	138	137	9.2728164908994
14	139	138	3.9721371445722
14	140	139	6.4776192467685
14	141	140	0.973
14	142	141	4.198220404532
14	143	142	0.973
14	144	143	0.973
14	145	144	0.973
14	146	145	0.973
14	147	146	0.973
14	148	147	0.973
14	149	148	4.8970660413971
14	150	149	3.8046070639954
14	151	150	2.135382181324
14	152	151	6.6958132092726
14	153	152	11.614359919151
14	154	153	3.9369305883338
14	155	154	6.0635891530622
14	156	155	2.6588321762657
14	157	156	0.973
14	158	157	0.973
14	159	158	0.973
14	160	159	1.5536028915548
14	161	160	0.973
14	162	161	3.765802546031
14	163	162	0.973
14	164	163	1.6023344636634
14	165	164	5.9093888385868
14	166	165	4.3415275043808
14	167	166	3.0611594925072
14	168	167	1.5907853827711
14	169	168	4.5215731099111
14	170	169	0.973
14	171	170	0.973
14	172	171	0.973
14	173	172	0.973
14	174	173	0.973
14	175	174	1.4115095574282
14	176	175	0.973
14	177	176	0.973
14	178	177	3.524701177441
14	179	178	1.8559279754836
14	180	179	3.4465684994238
14	181	180	4.2493607966719
14	182	181	2.1890086414375
14	183	182	2.6195102477691
14	184	183	7.8741022521169
14	185	184	5.5009702609775
14	186	185	2.1569191446686
14	187	186	0.973
14	188	187	0.973
14	189	188	0.973
14	190	189	0.973
14	191	190	0.973
14	192	191	1.900609676468
14	193	192	0.973
14	194	193	5.0356289145989
14	195	194	0.973
14	196	195	0.973
14	197	196	1.2398582162784
14	198	197	2.2634668499516
14	199	198	2.3510787496011
14	200	199	3.0397012316779
14	201	200	6.1348533494046
13	16	15	2.2255807911279
13	17	16	2.7256077103084
13	18	17	1.6276738909073
13	19	18	0.11785525083542
13	20	19	2.7336410578573
13	21	20	1.962989569568
13	22	21	0.41560731781647
13	23	22	0.40170485014096
13	24	23	-1.0413491186903
13	25	24	-1.7872098765818
13	26	25	2.3183272345923
13	27	26	0.76082638197113
13	28	27	-2.2
13	29	28	-2.2
13	30	29	-1.2714105423712
13	31	30	-2.2
13	32	31	0.079383845925516
13	33	32	0.58715715468559
13	34	33	-2.2
13	35	34	-0.77548462945183
13	36	35	-0.13009502950335
13	37	36	-0.9991187468178
13	38	37	1.6852116854861
13	39	38	0.55449051526375
13	40	39	2.546892600134
13	41	40	0.32311005004659
13	42	41	-0.88020966523462
13	43	42	-0.37444623593487
13	44	43	1.2333353637529
13	45	44	-0.91383125320426
13	46	45	-2.2
13	47	46	-2.2
13	48	47	0.65451688810079
13	49	48	1.8651402107598
13	50	49	-2.2
13	51	50	1.0252951779556
13	52	51	0.53834274504334
13	53	52	2.3088174992008
13	54	53	0.61476639902685
13	55	54	2.8886173256906
13	56	55	3.2565016472945
13	57	56	-2.2
13	58	57	0.5517953005335
13	59	58	-2.2
13	60	59	-2.2
13	61	60	3.4601119491272
13	62	61	1.6876687997983
13	63	62	-1.1835506450152
13	64	63	2.2699650112772
13	65	64	0.14819215110037
13	66	65	0.078187044826336
13	67	66	-2.2
13	68	67	-0.61341618402705
13	69	68	-0.57773308079915
13	70	69	-2.2
13	71	70	-0.77419373183511
13	72	71	2.8868323887
13	73	72	2.5495572783984
13	74	73	-1.4240444185019
13	75	74	-0.86646276710388
13	76	75	1.5993466235736
13	77	76	-2.2
13	78	77	-2.2
13	79	78	-1.658762034517
13	80	79	-1.6320603012765
13	81	80	-0.22765157479009
13	82	81	-2.2
13	83	82	0.68133682198822
13	84	83	-0.13443464727607
13	85	84	1.3545251508476
13	86	85	2.1447440085467
13	87	86	1.2797702826792
13	88	87	2.7555584040238
13	89	88	3.4739889053162
13	90	89	-2.2
13	91	90	-2.0109461812725
13	92	91	-2.2
13	93	92	0.48280442584867
13	94	93	-2.2
13	95	94	-2.2
13	96	95	0.046159923071223
13	97	96	-0.40395931061357
13	98	97	2.62535347417
13	99	98	0.28829535027035
13	100	99	2.5754860234447
13	101	100	0.98779210250359
13	102	101	0.46999739052262
13	103	102	0.67522181256209
13	104	103	2.0216326075606
13	105	104	0.79972874713178
13	106	105	-2.1804772873875
13	107	106	2.3320537320105
13	108	107	-1.8853576666443
13	109	108	2.3072358929785
13	110	109	-2.2
13	111	110	-0.035853369347752
13	112	111	1.8007474698825
13	113	112	-1.4815731520066
13	114	113	0.10637986054644
13	115	114	1.4191889491631
13	116	115	-2.2
13	117	116	-0.85140760043132
13	118	117	-2.2
13	119	118	-1.4752362717874
13	120	119	-2.2
13	121	120	-2.2
13	122	121	1.1407803695334
13	123	122	2.2476523780497
13	124	123	0.19010885735042
13	125	124	0.90101822675206
13	126	125	3.2898436313262
13	127	126	1.5035392426653
13	128	127	-2.1492874413219
13	129	128	0.74821109601767
13	130	129	-2.2
13	131	130	-2.2
13	132	131	-2.2
13	133	132	-2.0055984802311
13	134	133	1.2943004008848
13	135	134	1.4198705595918
13	136	135	2.4898559368448
13	137	136	1.2755825818749
13	138	137	2.7875679617282
13	139	138	0.74338549602188
13	140	139	1.4056388017489
13	141	140	-2.0169343372108
13	142	141	0.80334279034366
13	143	142	-0.35480822237441
13	144	143	-2.2
13	145	144	-2.2
13	146	145	-2.2
13	147	146	-2.2
13	148	147	-2.2
13	149	148	3.5
13	150	149	1.6765380848665
13	151	150	0.45243693783414
13	152	151	2.4105736868223
13	153	152	3.3401846050983
13	154	153	0.65554100739458
13	155	154	1.1962861760985
13	156	155	0.17736075550783
13	157	156	-2.2
13	158	157	-2.2
13	159	158	-1.0446351266333
13	160	159	-0.017174341987566
13	161	160	-2.2
13	162	161	1.2091818490271
13	163	162	-1.0121495471393
13	164	163	0.084158059326001
13	165	164	2.0330757063348
13	166	165	1.1145489943447
13	167	166	0.532904602569
13	168	167	-0.049749876199224
13	169	168	0.99284077039256
13	170	169	-2.2
13	171	170	-1.5477109854843
13	172	171	-2.2
13	173	172	-0.2274788137991
13	174	173	-2.2
13	175	174	0.18658913059348
13	176	175	-2.2
13	177	176	-0.24181256206484
13	178	177	2.6949374241522
13	179	178	0.56374387105461
13	180	179	1.5339481375413
13	181	180	1.6010404377012
13	182	181	0.37293339811731
13	183	182	0.55027158069424
13	184	183	2.428955949028
13	185	184	1.2909057800425
13	186	185	0.11030232815815
13	187	186	-2.2
13	188	187	-1.5839417725111
13	189	188	-1.7433394601336
13	190	189	-0.30089464368066
13	191	190	-2.2
13	192	191	0.53544781257541
13	193	192	-1.5303644544715
13	194	193	2.7031086051138
13	195	194	-0.93391893324977
13	196	195	-2.1730710166366
13	197	196	0.013499659020454
13	198	197	1.119390072301
13	199	198	0.92630411917344
13	200	199	1.1857663452392
13	201	200	2.3550773832249
12	15	14	1.7040915088728
12	16	15	3.9296723000007
12	17	16	6.6552800103091
12	18	17	8.2829539012164
12	19	18	8.4008091520518
12	20	19	11.134450209909
12	21	20	13.097439779477
12	22	21	13.513047097294
12	23	22	13.914751947435
12	24	23	12.873402828744
12	25	24	11.086192952163
12	26	25	13.404520186755
12	27	26	14.165346568726
12	28	27	11.965346568726
12	29	28	9.7653465687259
12	30	29	8.4939360263548
12	31	30	6.2939360263548
12	32	31	6.3733198722803
12	33	32	6.9604770269659
12	34	33	4.7604770269659
12	35	34	3.984992397514
12	36	35	3.8548973680107
12	37	36	2.8557786211929
12	38	37	4.540990306679
12	39	38	5.0954808219428
12	40	39	7.6423734220768
12	41	40	7.9654834721234
12	42	41	7.0852738068888
12	43	42	6.7108275709539
12	44	43	7.9441629347068
12	45	44	7.0303316815025
12	46	45	4.8303316815025
12	47	46	2.6303316815025
12	48	47	3.2848485696033
12	49	48	5.1499887803631
12	50	49	2.9499887803631
12	51	50	3.9752839583188
12	52	51	4.5136267033621
12	53	52	6.8224442025629
12	54	53	7.4372106015898
12	55	54	10.32582792728
12	56	55	13.582329574575
12	57	56	11.382329574575
12	58	57	11.934124875108
12	59	58	9.7341248751083
12	60	59	7.5341248751083
12	61	60	10.994236824236
12	62	61	12.681905624034
12	63	62	11.498354979019
12	64	63	13.768319990296
12	65	64	13.916512141396
12	66	65	13.994699186223
12	67	66	11.794699186223
12	68	67	11.181283002195
12	69	68	10.603549921396
12	70	69	8.4035499213963
12	71	70	7.6293561895612
12	72	71	10.516188578261
12	73	72	13.06574585666
12	74	73	11.641701438158
12	75	74	10.775238671054
12	76	75	12.374585294627
12	77	76	10.174585294627
12	78	77	7.9745852946275
12	79	78	6.3158232601105
12	80	79	4.683762958834
12	81	80	4.4561113840439
12	82	81	2.2561113840439
12	83	82	2.9374482060322
12	84	83	2.8030135587561
12	85	84	4.1575387096037
12	86	85	6.3022827181504
12	87	86	7.5820530008297
12	88	87	10.337611404853
12	89	88	13.81160031017
12	90	89	11.61160031017
12	91	90	9.6006541288972
12	92	91	7.4006541288972
12	93	92	7.8834585547459
12	94	93	5.6834585547459
12	95	94	3.4834585547458
12	96	95	3.5296184778171
12	97	96	3.1256591672035
12	98	97	5.7510126413735
12	99	98	6.0393079916438
12	100	99	8.6147940150885
12	101	100	9.6025861175921
12	102	101	10.072583508115
12	103	102	10.747805320677
12	104	103	12.769437928237
12	105	104	13.569166675369
12	106	105	11.388689387982
12	107	106	13.720743119992
12	108	107	11.835385453348
12	109	108	14.142621346326
12	110	109	11.942621346326
12	111	110	11.906767976979
12	112	111	13.707515446861
12	113	112	12.225942294855
12	114	113	12.332322155401
12	115	114	13.751511104564
12	116	115	11.551511104564
12	117	116	10.700103504133
12	118	117	8.5001035041328
12	119	118	7.0248672323454
12	120	119	4.8248672323454
12	121	120	2.6248672323454
12	122	121	3.7656476018787
12	123	122	6.0132999799284
12	124	123	6.2034088372788
12	125	124	7.1044270640309
12	126	125	10.394270695357
12	127	126	11.897809938022
12	128	127	9.7485224967005
12	129	128	10.496733592718
12	130	129	8.2967335927181
12	131	130	6.0967335927181
12	132	131	3.8967335927181
12	133	132	1.891135112487
12	134	133	3.1854355133718
12	135	134	4.6053060729636
12	136	135	7.0951620098085
12	137	136	8.3707445916834
12	138	137	11.158312553412
12	139	138	11.901698049433
12	140	139	13.307336851182
12	141	140	11.290402513971
12	142	141	12.093745304315
12	143	142	11.738937081941
12	144	143	9.5389370819407
12	145	144	7.3389370819407
12	146	145	5.1389370819407
12	147	146	2.9389370819407
12	148	147	0.73893708194072
12	149	148	4.2389370819407
12	150	149	5.9154751668072
12	151	150	6.3679121046413
12	152	151	8.7784857914637
12	153	152	12.118670396562
12	154	153	12.774211403957
12	155	154	13.970497580055
12	156	155	14.147858335563
12	157	156	11.947858335563
12	158	157	9.7478583355629
12	159	158	8.7032232089296
12	160	159	8.686048866942
12	161	160	6.486048866942
12	162	161	7.6952307159691
12	163	162	6.6830811688298
12	164	163	6.7672392281558
12	165	164	8.8003149344906
12	166	165	9.9148639288353
12	167	166	10.447768531404
12	168	167	10.398018655205
12	169	168	11.390859425598
12	170	169	9.1908594255976
12	171	170	7.6431484401133
12	172	171	5.4431484401133
12	173	172	5.2156696263142
12	174	173	3.0156696263142
12	175	174	3.2022587569077
12	176	175	1.0022587569077
12	177	176	0.76044619484285
12	178	177	3.455383618995
12	179	178	4.0191274900496
12	180	179	5.5530756275909
12	181	180	7.1541160652921
12	182	181	7.5270494634094
12	183	182	8.0773210441036
12	184	183	10.506276993132
12	185	184	11.797182773174
12	186	185	11.907485101332
12	187	186	9.7074851013323
12	188	187	8.1235433288213
12	189	188	6.3802038686877
12	190	189	6.079309225007
12	191	190	3.879309225007
12	192	191	4.4147570375824
12	193	192	2.884392583111
12	194	193	5.5875011882248
12	195	194	4.653582254975
12	196	195	2.4805112383384
12	197	196	2.4940108973588
12	198	197	3.6134009696599
12	199	198	4.5397050888333
12	200	199	5.7254714340725
12	201	200	8.0805488172974
11	14	13	26.914836471754
11	15	14	26.909769797298
11	16	15	26.898085935157
11	17	16	26.878298184879
11	18	17	26.853670968126
11	19	18	26.828693339329
11	20	19	26.795587937317
11	21	20	26.756646094563
11	22	21	26.716468551162
11	23	22	26.675096642498
11	24	23	26.636820915554
11	25	24	26.603858993992
11	26	25	32.86704123538
11	27	26	40.486280677649
11	28	27	46.922186786585
11	29	28	52.174759562187
11	30	29	56.743467576363
11	31	30	60.128842257205
11	32	31	63.556915824871
11	33	32	67.300808771194
11	34	33	69.861368384183
11	35	34	72.004811264664
11	36	35	74.078278788367
11	37	36	76.370465946044
11	38	37	80.911456252723
11	39	38	86.006937074666
11	40	39	93.649310496742
11	41	40	101.61479396887
11	42	41	108.70006777575
11	43	42	115.41089534671
11	44	43	123.35505828142
11	45	44	130.38538996292
11	46	45	135.21572164442
11	47	46	137.84605332592
11	48	47	141.13090189553
11	49	48	146.28089067589
11	50	49	149.21922445596
11	51	50	151.85065097268
11	52	51	154.67245756132
11	53	52	158.93767913737
11	54	53	163.58723729888
11	55	54	170.04268680617
11	56	55	178.53401974117
11	57	56	185.64996766918
11	58	57	193.11088422594
11	59	58	199.20543818269
11	60	59	201.9864133086
11	61	60	202.22206421272
11	62	61	202.49388867621
11	63	62	202.74034486866
11	64	63	203.03545558037
11	65	64	203.33374264847
11	66	65	203.63370558076
11	67	66	203.8865136266
11	68	67	204.12617368585
11	69	68	204.35345059153
11	70	69	204.7770112604
11	71	70	209.32455977089
11	72	71	217.15090186871
11	73	72	226.87467166195
11	74	73	235.53864125299
11	75	74	243.55777322249
11	76	75	252.76716853845
11	77	76	260.33928315265
11	78	77	266.2741170651
11	79	78	270.97446958304
11	80	79	274.46021263036
11	81	80	277.77653316398
11	82	81	279.45557299584
11	83	82	281.71488374679
11	84	83	284.30426771112
11	85	84	287.99955790315
11	86	85	293.60113257087
11	87	86	300.3401885476
11	88	87	309.52843108762
11	89	88	321.80441327981
11	90	89	332.1249985436
11	91	90	340.65822108646
11	92	91	347.23604670092
11	93	92	354.24299699325
11	94	93	359.29455035718
11	95	94	362.39070679271
11	96	95	365.49567023971
11	97	96	366.20378318459
11	98	97	366.82057731497
11	99	98	367.46829102263
11	100	99	368.39222472165
11	101	100	369.42209878437
11	102	101	370.50237990579
11	103	102	371.65507833467
11	104	103	373.0245961663
11	105	104	374.47988463136
11	106	105	375.70131765632
11	107	106	377.17286264301
11	108	107	378.44220366754
11	109	108	376.88547628159
11	110	109	372.15138749341
11	111	110	367.43151108197
11	112	111	361.9978132941
11	113	112	357.15141528276
11	114	113	352.26284799463
11	115	114	346.81171020395
11	116	115	342.23265861881
11	117	116	337.99110740803
11	118	117	334.62164240279
11	119	118	331.83696521687
11	120	119	329.92437423649
11	121	120	328.79799455272
11	122	121	325.35775827952
11	123	122	319.7442768401
11	124	123	313.95332669867
11	125	124	307.32126616706
11	126	125	297.61810054761
11	127	126	286.51136456574
11	128	127	277.41101196739
11	129	128	267.61219611022
11	130	129	259.86710436592
11	131	130	254.1757367345
11	132	131	250.51271385081
11	133	132	249.09198089046
11	134	133	247.91778816104
11	135	134	246.22473153754
11	136	135	243.61632487678
11	137	136	240.53897358893
11	138	137	236.43682387806
11	139	138	232.06138207369
11	140	139	227.16918284955
11	141	140	223.0184726784
11	142	141	218.57242821012
11	143	142	214.25682250128
11	144	143	210.75000659113
11	145	144	208.05198047969
11	146	145	206.16274416694
11	147	146	205.0822976529
11	148	147	204.81064093755
11	149	148	203.25227317882
11	150	149	201.96
11	151	150	202.08303144628
11	152	151	202.27118985569
11	153	152	202.53094191318
11	154	153	202.80474486238
11	155	154	203.1041890565
11	156	155	203.40743480801
11	157	156	203.66352567308
11	158	157	203.87246165169
11	159	158	204.05900687995
11	160	159	204.24518399269
11	161	160	204.38420621898
11	162	161	203.46176571214
11	163	162	198.69242423697
11	164	163	193.55444881009
11	165	164	186.87287596217
11	166	165	179.34509018282
11	167	166	171.41270059672
11	168	167	163.51808322951
11	169	168	154.86965898344
11	170	169	147.89156817144
11	171	170	142.08856527096
11	172	171	137.95589580454
11	173	172	133.99593791459
11	174	173	131.70631345871
11	175	174	129.27502261043
11	176	175	128.51406519623
11	177	176	127.93670214893
11	178	177	125.234968795
11	179	178	121.75747240611
11	180	179	117.19600050589
11	181	180	111.31938336771
11	182	181	105.13642694473
11	183	182	98.50146004663
11	184	183	89.871271932146
11	185	184	80.180692993478
11	186	185	70.399508234872
11	187	186	62.425473036883
11	188	187	55.752537692638
11	189	188	50.511636502661
11	190	189	45.517899686829
11	191	190	42.331312431614
11	192	191	38.704891413114
11	193	192	36.335560145288
11	194	193	31.745810001082
11	195	194	27.92321039773
11	196	195	26.928337324961
11	197	196	26.920922029924
11	198	197	26.910178518617
11	199	198	26.896680882079
11	200	199	26.879657676626
11	201	200	26.855632258934
10	14	13	100.98045950086
10	15	14	102.68470454532
10	16	15	106.61473090175
10	17	16	113.27061054085
10	18	17	121.55431072136
10	19	18	129.95587677126
10	20	19	141.09133017517
10	21	20	154.18995001049
10	22	21	167.7042146091
10	23	22	181.62022025073
10	24	23	194.49478294999
10	25	24	205.58197474826
10	26	25	217.17095636977
10	27	26	229.11315718574
10	28	27	239.20063163355
10	29	28	247.43337971319
10	30	29	254.59425567571
10	31	30	259.90040527007
10	32	31	265.27348000636
10	33	32	271.14156195039
10	34	33	275.15491752627
10	35	34	278.51449501563
10	36	35	281.76439492244
10	37	36	283.04
10	38	37	283.04
10	39	38	283.04
10	40	39	283.04
10	41	40	283.04
10	42	41	283.04
10	43	42	283.04
10	44	43	283.04
10	45	44	283.04
10	46	45	283.04
10	47	46	283.04
10	48	47	283.04
10	49	48	283.04
10	50	49	282.93025851468
10	51	50	279.99237952677
10	52	51	276.46971706718
10	53	52	271.14513671207
10	54	53	265.34076158047
10	55	54	257.28196345777
10	56	55	246.68162682148
10	57	56	237.79828140322
10	58	57	228.48428703716
10	59	58	220.89426132387
10	60	59	214.21800782031
10	61	60	203.22657636398
10	62	61	190.54790674546
10	63	62	179.05248576874
10	64	63	165.2876790012
10	65	64	151.37471789633
10	66	65	137.38358969739
10	67	66	125.59190013076
10	68	67	114.41347022451
10	69	68	103.81262598057
10	70	69	95.433110482525
10	71	70	89.545502332641
10	72	71	82.52003424537
10	73	72	73.791303311226
10	74	73	66.013922625567
10	75	74	58.815392963146
10	76	75	50.548400275288
10	77	76	43.751144429535
10	78	77	38.423625425887
10	79	78	34.204262637883
10	80	79	31.075217646844
10	81	80	28.09825806791
10	82	81	26.591035331081
10	83	82	24.733900626021
10	84	83	25.538062548588
10	85	84	27.442814222163
10	86	85	30.330167628402
10	87	86	33.803840190755
10	88	87	38.539955474225
10	89	88	44.867658147151
10	90	89	50.187443883024
10	91	90	54.585926566347
10	92	91	57.976492312617
10	93	92	61.58825203984
10	94	93	64.192094830009
10	95	94	65.788020683124
10	96	95	67.457644873532
10	97	96	70.43188450404
10	98	97	76.14989610302
10	99	98	82.154548726733
10	100	99	90.719908459507
10	101	100	100.26739204624
10	102	101	110.28217603693
10	103	102	120.96830721409
10	104	103	133.66447026211
10	105	104	147.15577297288
10	106	105	158.47911063157
10	107	106	172.12111999568
10	108	107	183.88859044319
10	109	108	197.50150036482
10	110	109	208.46569920325
10	111	110	219.39698202943
10	112	111	231.9814825827
10	113	112	243.20579074929
10	114	113	254.52776339921
10	115	114	267.15265518025
10	116	115	277.75778624503
10	117	116	287.58126293487
10	118	117	295.38497890843
10	119	118	301.83432021429
10	120	119	306.26390080387
10	121	120	308.62440653673
10	122	121	310.1091483514
10	123	122	312.26481844231
10	124	123	314.48863946185
10	125	124	317.0354608388
10	126	125	320.76163756864
10	127	126	325.02680862551
10	128	127	328.52149514485
10	129	128	332.28440315435
10	130	129	335.25864700011
10	131	130	337.44422668213
10	132	131	338.75759674098
10	133	132	337.73088098051
10	134	133	334.76998942309
10	135	134	330.48711756311
10	136	135	323.88871362809
10	137	136	316.10403528298
10	138	137	305.72695673865
10	139	138	294.65853981818
10	140	139	282.28289797631
10	141	140	271.78297756954
10	142	141	260.53595932038
10	143	142	249.61890788063
10	144	143	240.7478264465
10	145	144	233.92271501798
10	146	145	229.14357359508
10	147	146	226.41040217779
10	148	147	225.72320076611
10	149	148	221.78104707278
10	150	149	216.0777234623
10	151	150	209.71146182727
10	152	151	200.93521601687
10	153	152	188.8196379067
10	154	153	176.04868606167
10	155	154	162.08175329345
10	156	155	147.93750502635
10	157	156	135.99269539157
10	158	157	126.24732438908
10	159	158	117.54632195668
10	160	159	108.86248948394
10	161	160	102.3780956435
10	162	161	94.901212434076
10	163	162	90.253602304736
10	164	163	85.849818138937
10	165	164	80.123008984428
10	166	165	73.670906538546
10	167	166	66.872016167551
10	168	167	60.105500552297
10	169	168	52.692893330643
10	170	169	46.711937161673
10	171	170	41.738154657076
10	172	171	38.196023205164
10	173	172	34.801923700179
10	174	173	32.839475247878
10	175	174	30.755603829562
10	176	175	30.10338346393
10	177	176	29.608522738768
10	178	177	27.48624219875
10	179	178	29.20067583768
10	180	179	32.367838244509
10	181	180	36.448144182269
10	182	181	40.741150381645
10	183	182	45.348000580419
10	184	183	51.34019081155
10	185	184	58.068641185978
10	186	185	64.86000181241
10	187	186	70.396606018741
10	188	187	75.029818812289
10	189	188	78.668728705828
10	190	189	82.136025196671
10	191	190	84.348565267414
10	192	191	86.86649469291
10	193	192	88.51159019825
10	194	193	91.698387011089
10	195	194	94.352528925133
10	196	195	96.439263422203
10	197	196	98.933499025472
10	198	197	102.54722555608
10	199	198	107.0873396642
10	200	199	112.81332695299
10	201	200	120.89460381324
21	19	18	6.2548477216168
21	20	19	7.2748397920447
21	21	20	7.0762570969587
21	22	21	3.327944877537
21	23	22	10.316212054221
21	24	23	0.973
21	25	24	2.477908916572
21	26	25	4.1860103542693
21	27	26	5.9117145285418
21	28	27	0.973
21	29	28	0.973
21	30	29	0.973
21	31	30	0.973
21	32	31	0.973
21	33	32	2.4672104312968
21	34	33	4.6714010635257
21	35	34	0.973
21	36	35	0.973
21	37	36	0.973
21	38	37	0.973
21	39	38	2.1437792334604
21	40	39	0.973
21	41	40	0.973
21	42	41	0.973
21	43	42	1.6030105552209
21	44	43	6.6572106543534
21	45	44	10.026515965481
21	46	45	2.6168217995634
21	47	46	0.973
21	48	47	0.973
21	49	48	0.973
21	50	49	1.5502122146957
21	51	50	4.1053212943749
21	52	51	0.973
21	53	52	1.4922865013745
21	54	53	0.973
21	55	54	0.973
21	56	55	1.4275843676993
21	57	56	1.4548262310872
21	58	57	5.1614277679678
21	59	58	7.1336774354791
21	60	59	7.1021494958945
21	61	60	6.9554752183055
21	62	61	3.7373259219238
21	63	62	0.973
21	64	63	0.973
21	65	64	0.973
21	66	65	0.973
21	67	66	4.4354752140947
21	68	67	6.411749952243
21	69	68	11.564007626915
21	70	69	1.3713420989492
21	71	70	0.973
21	72	71	7.8030129990268
21	73	72	0.973
21	74	73	10.395502011759
21	75	74	0.973
21	76	75	0.973
21	77	76	0.973
21	78	77	0.973
21	79	78	4.3252972026257
21	80	79	3.8277018734984
21	81	80	1.9384411936159
21	82	81	9.4699513156895
21	83	82	2.4485853149347
21	84	83	1.6384834242268
21	85	84	3.0994776374796
21	86	85	0.973
21	87	86	0.973
21	88	87	0.973
21	89	88	0.973
21	90	89	1.3802919066779
21	91	90	1.4005194439694
21	92	91	4.9678756701049
21	93	92	3.2590955066823
21	94	93	9.9651078456266
21	95	94	1.7115319064997
21	96	95	9.2377613132931
21	97	96	3.9340306727487
21	98	97	0.973
21	99	98	3.2970003891719
21	100	99	0.973
21	101	100	0.973
21	102	101	0.973
21	103	102	0.973
21	104	103	1.9160645206794
21	105	104	0.973
21	106	105	0.973
21	107	106	5.5682247011438
21	108	107	8.8353230537989
21	109	108	3.7366370955714
21	110	109	12.92960073491
21	111	110	4.4430517482083
21	112	111	0.973
21	113	112	1.4139709423782
21	114	113	0.973
21	115	114	3.1733774651083
21	116	115	9.7251656325962
21	117	116	0.973
21	118	117	0.973
21	119	118	0.973
21	120	119	10.385884673693
21	121	120	0.973
21	122	121	0.973
21	123	122	0.973
21	124	123	0.973
21	125	124	1.4910018267142
21	126	125	0.973
21	127	126	4.8033508174376
21	128	127	6.7924132804368
21	129	128	10.808422547561
21	130	129	0.973
21	131	130	0.973
21	132	131	0.973
21	133	132	0.973
21	134	133	0.973
21	135	134	0.973
21	136	135	0.973
21	137	136	1.7731607369701
21	138	137	5.6764406758241
21	139	138	1.9254536998634
21	140	139	2.4536931930964
21	141	140	1.8089954601594
21	142	141	2.1377094427664
21	143	142	8.0119830339964
21	144	143	2.9839166204222
21	145	144	2.864850062272
21	146	145	0.973
21	147	146	0.973
21	148	147	9.0676945450243
21	149	148	6.9862660029527
21	150	149	7.1298508909403
21	151	150	0.973
21	152	151	0.973
21	153	152	0.973
21	154	153	6.321022337545
21	155	154	0.973
21	156	155	0.973
21	157	156	0.973
21	158	157	0.973
21	159	158	0.973
21	160	159	1.8703374145807
21	161	160	1.3836070292333
21	162	161	1.9297375392308
21	163	162	9.2335728967188
21	164	163	8.5797769034227
21	165	164	3.4660694227969
21	166	165	0.973
21	167	166	0.973
21	168	167	3.0385069277349
21	169	168	0.973
21	170	169	0.973
21	171	170	0.973
21	172	171	0.973
21	173	172	0.973
21	174	173	1.2797435975948
21	175	174	2.4004341086959
21	176	175	2.1446311251068
21	177	176	5.5536367071084
21	178	177	7.1213409129482
21	179	178	4.5078423036287
21	180	179	7.0440894477029
21	181	180	2.6675816181923
21	182	181	0.973
21	183	182	6.8323172453862
21	184	183	0.973
21	185	184	0.973
21	186	185	0.973
21	187	186	0.973
21	188	187	0.973
21	189	188	0.973
21	190	189	1.1732611890353
21	191	190	1.7749722102663
21	192	191	1.6608217816678
21	193	192	4.0380878797529
21	194	193	5.347316391786
21	195	194	10.116435590824
21	196	195	13.243009575793
21	197	196	0.973
21	198	197	0.973
21	199	198	9.2014696845928
21	200	199	0.973
21	201	200	0.973
20	19	18	3.479441736592
20	20	19	2.7649150704965
20	21	20	2.0850749785975
20	22	21	0.57307723150369
20	23	22	2.5125453081528
20	24	23	-2.2
20	25	24	0.23011060808785
20	26	25	0.76032974375432
20	27	26	1.1832706839543
20	28	27	-0.51609701814596
20	29	28	-1.8521754757495
20	30	29	-2.2
20	31	30	-0.25185069911158
20	32	31	-2.2
20	33	32	0.55876955731057
20	34	33	1.4695775108145
20	35	34	-2.2
20	36	35	-2.2
20	37	36	-0.60367888432826
20	38	37	-0.32147211422178
20	39	38	0.81670081621854
20	40	39	-0.35204572191008
20	41	40	-0.23866261150688
20	42	41	-1.0240994289052
20	43	42	0.46829188580159
20	44	43	3.3716749259038
20	45	44	3.4952015962917
20	46	45	0.36762500345001
20	47	46	-2.0871045255335
20	48	47	-2.2
20	49	48	-2.2
20	50	49	0.24599322467111
20	51	50	1.8849561935117
20	52	51	-1.2471240845513
20	53	52	0.12168618530592
20	54	53	-1.5197094211355
20	55	54	-2.1742793179583
20	56	55	0.58117126813158
20	57	56	0.46408428740688
20	58	57	3.0336581913289
20	59	58	2.8765636894386
20	60	59	2.1865031630732
20	61	60	1.7642465647077
20	62	61	0.60322033767208
20	63	62	-1.5328957500169
20	64	63	-2.2
20	65	64	-1.5351769440175
20	66	65	-0.74039449112024
20	67	66	1.4813850412611
20	68	67	1.9527428061701
20	69	68	3.0487625958631
20	70	69	-0.18000433213818
20	71	70	-2.1567785091465
20	72	71	1.9286353209754
20	73	72	-1.0330053481739
20	74	73	2.4558523744345
20	75	74	-2.2
20	76	75	-2.2
20	77	76	-2.2
20	78	77	-2.2
20	79	78	1.6894574085018
20	80	79	1.1581600818317
20	81	80	0.18563088495284
20	82	81	2.8525402994128
20	83	82	0.23603240523953
20	84	83	-0.056769113754854
20	85	84	0.44523254333137
20	86	85	-2.2
20	87	86	-1.9852733054897
20	88	87	-2.2
20	89	88	-2.2
20	90	89	0.12967574945651
20	91	90	0.13993944437243
20	92	91	2.4694816892734
20	93	92	1.0517078265548
20	94	93	3.3150088376133
20	95	94	0.00046447024215013
20	96	95	2.3887912045466
20	97	96	0.6106142848909
20	98	97	-2.2
20	99	98	0.52611431978132
20	100	99	-2.2
20	101	100	-2.2
20	102	101	-1.8699923048537
20	103	102	-2.2
20	104	103	0.66264833290849
20	105	104	-0.83617319554851
20	106	105	-0.81363284296822
20	107	106	3.2082779248012
20	108	107	3.4061844104435
20	109	108	0.8870255643269
20	110	109	3.4595238036709
20	111	110	0.72203434388665
20	112	111	-2.2
20	113	112	-0.14195876261219
20	114	113	-0.53196822432801
20	115	114	0.49336241045967
20	116	115	2.313767564483
20	117	116	-1.8538313929457
20	118	117	-0.34396261326037
20	119	118	-0.24380196025595
20	120	119	2.4998644378502
20	121	120	-2.2
20	122	121	-2.2
20	123	122	-2.2
20	124	123	-2.2
20	125	124	0.09530606128658
20	126	125	-2.2
20	127	126	2.5592166649876
20	128	127	2.6548032745486
20	129	128	3.2643636695575
20	130	129	-0.6427991162367
20	131	130	-1.2473193709331
20	132	131	-1.4115911379598
20	133	132	-1.2684826689539
20	134	133	-1.6982472457159
20	135	134	-0.26305323215201
20	136	135	-1.0669359878703
20	137	136	0.43483092449605
20	138	137	2.5526558026904
20	139	138	0.25737425277475
20	140	139	0.51063995994627
20	141	140	0.15066433441825
20	142	141	0.30392611154821
20	143	142	2.4753484111279
20	144	143	0.46053981949152
20	145	144	0.38961482903307
20	146	145	-2.2
20	147	146	-2.2
20	148	147	3.0508313552709
20	149	148	1.8050051541068
20	150	149	1.5902091105301
20	151	150	-1.1353544729063
20	152	151	-0.65109181881417
20	153	152	-0.80397052026819
20	154	153	1.4942224455299
20	155	154	-2.2
20	156	155	-1.6322422424205
20	157	156	-0.60778986274294
20	158	157	-2.2
20	159	158	-0.98159624488995
20	160	159	0.40588738361839
20	161	160	0.010970555245876
20	162	161	0.40268360590562
20	163	162	3.4997091718251
20	164	163	2.4485660996288
20	165	164	0.55632210330704
20	166	165	-1.3609576831805
20	167	166	-0.83559442224839
20	168	167	0.53006432969123
20	169	168	-2.2
20	170	169	-2.2
20	171	170	-2.2
20	172	171	-1.9638765840791
20	173	172	-0.86536228423938
20	174	173	0.34564232535195
20	175	174	1.6305959592573
20	176	175	0.91405932605267
20	177	176	2.6344718055334
20	178	177	2.5382736227475
20	179	178	1.1486770183546
[...]
24	145	144	3.087343492532
24	146	145	6.645367101872
24	147	146	5.399826027481
24	148	147	7.5330275394077
24	149	148	0.973
24	150	149	1.6220457274486
24	151	150	0.973
24	152	151	0.973
24	153	152	0.973
24	154	153	0.973
24	155	154	0.973
24	156	155	0.973
24	157	156	1.4123487358999
24	158	157	1.2656744701309
24	159	158	1.5633318306354
24	160	159	1.9565553173725
24	161	160	5.4331328466579
24	162	161	6.8540938834334
24	163	162	1.9597559320037
24	164	163	6.9324062177892
24	165	164	1.4743373627985
24	166	165	0.973
24	167	166	4.2293136047177
24	168	167	6.4767700310964
24	169	168	1.6012513799481
24	170	169	0.973
24	171	170	0.973
24	172	171	0.973
24	173	172	0.973
24	174	173	2.2184864600191
24	175	174	2.1134226090674
24	176	175	6.8780834497862
24	177	176	2.9343871077477
24	178	177	6.3740184031539
24	179	178	0.973
24	180	179	6.5832118116026
24	181	180	1.3191267424757
24	182	181	0.973
24	183	182	4.2163169240532
24	184	183	0.973
24	185	184	0.973
24	186	185	0.973
24	187	186	2.0332076190619
24	188	187	0.973
24	189	188	6.1046928241362
24	190	189	3.7471960570057
24	191	190	3.5794925674241
24	192	191	0.973
24	193	192	6.7196299530844
24	194	193	3.136194744547
24	195	194	0.973
24	196	195	1.6768699731385
24	197	196	0.973
24	198	197	0.973
24	199	198	0.973
24	200	199	0.973
24	201	200	1.5800400967179
23	21	20	0.030327325104736
23	22	21	0.084371783421375
23	23	22	2.8944856863236
23	24	23	1.8378298179014
23	25	24	1.6299037713325
23	26	25	0.86634109790937
23	27	26	0.15452940936666
23	28	27	1.6624730594922
23	29	28	-1.877600090229
23	30	29	1.387406769325
23	31	30	0.53081272903364
23	32	31	-2.2
23	33	32	-0.64343236708082
23	34	33	0.40493184374645
23	35	34	1.6803845693357
23	36	35	-0.50477274553158
23	37	36	-2.2
23	38	37	-1.5467958975953
23	39	38	-0.16406044142233
23	40	39	-0.39744576082403
23	41	40	-0.75023472989533
23	42	41	-1.6572796616104
23	43	42	1.9254009779332
23	44	43	-0.92553645252387
23	45	44	-1.5490154144167
23	46	45	-2.2
23	47	46	1.621639796067
23	48	47	0.35611942573451
23	49	48	0.045099637820385
23	50	49	2.8742681739386
23	51	50	0.804118237691
23	52	51	1.776666368125
23	53	52	0.530325144122
23	54	53	-1.4788972713261
23	55	54	0.10240271232736
23	56	55	-1.1875383781211
23	57	56	-2.0333613595595
23	58	57	-0.11024870989459
23	59	58	-0.79999907047127
23	60	59	-0.49898669444284
23	61	60	-1.6008250940193
23	62	61	-0.55037701583933
23	63	62	-0.11169393267483
23	64	63	1.921655045473
23	65	64	2.512854021159
23	66	65	1.4624429557007
23	67	66	0.84244107420091
23	68	67	1.7518305929843
23	69	68	1.7494530592192
23	70	69	0.32615015050396
23	71	70	-0.41178919863887
23	72	71	-1.9319111571415
23	73	72	-2.2
23	74	73	1.3901928981068
23	75	74	0.41718331014272
23	76	75	0.18980603700038
23	77	76	0.22731618199032
23	78	77	1.9827846963658
23	79	78	1.1595853301696
23	80	79	-1.9576635429403
23	81	80	1.8159764932934
23	82	81	-1.1591994145419
23	83	82	-1.6059653541306
23	84	83	0.41478823760493
23	85	84	-1.5495584299089
23	86	85	-2.2
23	87	86	-1.9452052041888
23	88	87	0.61006160045508
23	89	88	2.2327887566062
23	90	89	1.0528481621295
23	91	90	2.4298040433787
23	92	91	0.77450060521284
23	93	92	-1.8925687189912
23	94	93	0.2476388377836
23	95	94	2.0292557430221
23	96	95	-1.2540236027829
23	97	96	-0.82758970599634
23	98	97	-2.2
23	99	98	-2.2
23	100	99	-2.2
23	101	100	-0.94482883585418
23	102	101	0.0095969811216756
23	103	102	0.30374984955415
23	104	103	3.3749192868127
23	105	104	1.5113880503923
23	106	105	0.50009927642532
23	107	106	1.8007767698728
23	108	107	0.51892805553008
23	109	108	0.21707362006418
23	110	109	0.84553486225195
23	111	110	-2.1109563486597
23	112	111	-1.9658967075792
23	113	112	-2.2
23	114	113	-0.48668564252549
23	115	114	0.53970176915208
23	116	115	-2.2
23	117	116	0.78873979696073
23	118	117	3.3620218980359
23	119	118	3.0919032088714
23	120	119	1.9227946146908
23	121	120	-0.57201675407123
23	122	121	-2.2
23	123	122	0.5908194724936
23	124	123	1.5772507125512
23	125	124	0.397714030114
23	126	125	-1.754745582235
23	127	126	2.3558815744473
23	128	127	-1.3512561341049
23	129	128	-1.7133399279555
23	130	129	3.1314264901448
23	131	130	-1.0262983110733
23	132	131	-0.35955203592312
23	133	132	1.3143302890239
23	134	133	-0.44212347490247
23	135	134	-0.32580098393373
23	136	135	-0.48537341749761
23	137	136	-0.91083281813189
23	138	137	2.0516490977025
23	139	138	-2.2
23	140	139	-2.2
23	141	140	-2.2
23	142	141	-2.2
23	143	142	-0.31321565364712
23	144	143	1.7935084385099
23	145	144	1.2165348285343
23	146	145	2.5455295006977
23	147	146	1.5688702014741
23	148	147	1.9951262938114
23	149	148	-1.6745743686333
23	150	149	-0.030187676973901
23	151	150	-2.2
23	152	151	-1.4250506576383
23	153	152	-1.8662777620712
23	154	153	-1.213412323836
23	155	154	-2.2
23	156	155	-0.63507804555543
23	157	156	0.7351380859036
23	158	157	0.21438203437719
23	159	158	0.65083222358953
23	160	159	0.91995800693985
23	161	160	2.8090255087009
23	162	161	2.5734872857574
23	163	162	0.17690645856783
23	164	163	2.0140527909389
23	165	164	-0.10058089699593
23	166	165	-1.7300081916619
23	167	166	1.0650083206128
23	168	167	1.6677690268261
23	169	168	-0.074259939952753
23	170	169	-2.2
23	171	170	-2.2
23	172	171	-2.2
23	173	172	-1.1082765538102
23	174	173	0.78976558346767
23	175	174	0.59035256004427
23	176	175	2.7764829609077
23	177	176	0.6490810457617
23	178	177	1.844289993518
23	179	178	-0.60404810422601
23	180	179	1.7104898623656
23	181	180	-0.17388170456979
23	182	181	-1.8703431398608
23	183	182	0.9833532407647
23	184	183	-0.37362213246524
23	185	184	-0.71600237561904
23	186	185	-0.25248975363793
23	187	186	0.17612018742848
23	188	187	-2.2
23	189	188	2.0264875935391
23	190	189	0.85258917257221
23	191	190	0.70997076819185
23	192	191	-1.2711505286861
23	193	192	1.8144708087202
23	194	193	0.46289734891616
23	195	194	-2.2
23	196	195	0.011025471414573
23	197	196	-2.2
23	198	197	-2.2
23	199	198	-1.0535775979687
23	200	199	-2.2
23	201	200	0.58275158274079
22	20	19	2.4692269932711
22	21	20	2.4995543183759
22	22	21	2.5839261017973
22	23	22	5.4784117881209
22	24	23	7.3162416060222
22	25	24	8.9461453773547
22	26	25	9.8124864752641
22	27	26	9.9670158846307
22	28	27	11.629488944123
22	29	28	9.751888853894
22	30	29	11.139295623219
22	31	30	11.670108352253
22	32	31	9.4701083522526
22	33	32	8.8266759851718
22	34	33	9.2316078289183
22	35	34	10.911992398254
22	36	35	10.407219652722
22	37	36	8.2072196527224
22	38	37	6.6604237551271
22	39	38	6.4963633137047
22	40	39	6.0989175528807
22	41	40	5.3486828229854
22	42	41	3.6914031613749
22	43	42	5.6168041393081
22	44	43	4.6912676867842
22	45	44	3.1422522723675
22	46	45	0.94225227236753
22	47	46	2.5638920684346
22	48	47	2.9200114941691
22	49	48	2.9651111319894
22	50	49	5.8393793059281
22	51	50	6.6434975436191
22	52	51	8.4201639117441
22	53	52	8.9504890558661
22	54	53	7.47159178454
22	55	54	7.5739944968673
22	56	55	6.3864561187462
22	57	56	4.3530947591867
22	58	57	4.2428460492921
22	59	58	3.4428469788209
22	60	59	2.943860284378
22	61	60	1.3430351903588
22	62	61	0.79265817451944
22	63	62	0.68096424184461
22	64	63	2.6026192873176
22	65	64	5.1154733084766
22	66	65	6.5779162641773
22	67	66	7.4203573383782
22	68	67	9.1721879313625
22	69	68	10.921640990582
22	70	69	11.247791141086
22	71	70	10.836001942447
22	72	71	8.9040907853053
22	73	72	6.7040907853053
22	74	73	8.0942836834121
22	75	74	8.5114669935548
22	76	75	8.7012730305552
22	77	76	8.9285892125455
22	78	77	10.911373908911
22	79	78	12.070959239081
22	80	79	10.113295696141
22	81	80	11.929272189434
22	82	81	10.770072774892
22	83	82	9.1641074207615
22	84	83	9.5788956583664
22	85	84	8.0293372284575
22	86	85	5.8293372284575
22	87	86	3.8841320242686
22	88	87	4.4941936247237
22	89	88	6.7269823813299
22	90	89	7.7798305434594
22	91	90	10.209634586838
22	92	91	10.984135192051
22	93	92	9.0915664730597
22	94	93	9.3392053108433
22	95	94	11.368461053865
22	96	95	10.114437451083
22	97	96	9.2868477450862
22	98	97	7.0868477450862
22	99	98	4.8868477450862
22	100	99	2.6868477450862
22	101	100	1.742018909232
22	102	101	1.7516158903537
22	103	102	2.0553657399078
22	104	103	5.4302850267205
22	105	104	6.9416730771127
22	106	105	7.4417723535381
22	107	106	9.2425491234108
22	108	107	9.7614771789409
22	109	108	9.9785507990051
22	110	109	10.824085661257
22	111	110	8.7131293125973
22	112	111	6.7472326050182
22	113	112	4.5472326050182
22	114	113	4.0605469624927
22	115	114	4.6002487316448
22	116	115	2.4002487316448
22	117	116	3.1889885286055
22	118	117	6.5510104266414
22	119	118	9.6429136355127
22	120	119	11.565708250204
22	121	120	10.993691496132
22	122	121	8.7936914961323
22	123	122	9.3845109686259
22	124	123	10.961761681177
22	125	124	11.359475711291
22	126	125	9.604730129056
22	127	126	11.960611703503
22	128	127	10.609355569398
22	129	128	8.8960156414428
22	130	129	12.027442131588
22	131	130	11.001143820514
22	132	131	10.641591784591
22	133	132	11.955922073615
22	134	133	11.513798598713
22	135	134	11.187997614779
22	136	135	10.702624197281
22	137	136	9.7917913791494
22	138	137	11.843440476852
22	139	138	9.6434404768519
22	140	139	7.4434404768519
22	141	140	5.2434404768519
22	142	141	3.0434404768519
22	143	142	2.7302248232048
22	144	143	4.5237332617146
22	145	144	5.740268090249
22	146	145	8.2857975909467
22	147	146	9.8546677924208
22	148	147	11.849794086232
22	149	148	10.175219717599
22	150	149	10.145032040625
22	151	150	7.945032040625
22	152	151	6.5199813829866
22	153	152	4.6537036209154
22	154	153	3.4402912970794
22	155	154	1.2402912970794
22	156	155	0.60521325152398
22	157	156	1.3403513374276
22	158	157	1.5547333718048
22	159	158	2.2055655953943
22	160	159	3.1255236023342
22	161	160	5.934549111035
22	162	161	8.5080363967925
22	163	162	8.6849428553603
22	164	163	10.698995646299
22	165	164	10.598414749303
22	166	165	8.8684065576413
22	167	166	9.9334148782542
22	168	167	11.60118390508
22	169	168	11.526923965128
22	170	169	9.3269239651275
22	171	170	7.1269239651275
22	172	171	4.9269239651275
22	173	172	3.8186474113173
22	174	173	4.608412994785
22	175	174	5.1987655548293
22	176	175	7.975248515737
22	177	176	8.6243295614987
22	178	177	10.468619555017
22	179	178	9.8645714507907
22	180	179	11.575061313156
22	181	180	11.401179608587
22	182	181	9.5308364687258
22	183	182	10.514189709491
22	184	183	10.140567577025
22	185	184	9.4245652014062
22	186	185	9.1720754477683
22	187	186	9.3481956351968
22	188	187	7.1481956351968
22	189	188	9.1746832287358
22	190	189	10.027272401308
22	191	190	10.7372431695
22	192	191	9.4660926408138
22	193	192	11.280563449534
22	194	193	11.74346079845
22	195	194	9.5434607984502
22	196	195	9.5544862698647
22	197	196	7.3544862698647
22	198	197	5.1544862698647
22	199	198	4.1009086718961
22	200	199	1.9009086718961
22	201	200	2.4836602546369
19	19	18	26.914836471754
19	20	19	26.907494865233
19	21	20	26.900063088271
19	22	21	26.892380453677
19	23	22	26.876091816051
19	24	23	26.854338867767
19	25	24	26.827739823038
19	26	25	26.798564937581
19	27	26	26.768930598975
19	28	27	26.734353327585
19	29	28	26.70535861345
19	30	29	26.672238804858
19	31	30	26.637540762185
19	32	31	26.609383849344
19	33	32	29.405233337562
19	34	33	34.370719366753
19	35	34	40.240048611269
19	36	35	45.837871303263
19	37	36	50.252360661925
19	38	37	53.834861318091
19	39	38	57.329117342887
19	40	39	60.609595723603
19	41	40	63.486538757179
19	42	41	65.472066215191
19	43	42	68.493226017395
19	44	43	71.016559394377
19	45	44	72.706710237848
19	46	45	73.213527747985
19	47	46	74.621102021296
19	48	47	77.390884727871
19	49	48	80.35599585986
19	50	49	86.195375165788
19	51	50	92.838872709407
19	52	51	101.25903662115
19	53	52	110.20952567702
19	54	53	117.68111746156
19	55	54	125.25511195842
19	56	55	131.64156807717
19	57	56	135.99466283636
19	58	57	140.23750888565
19	59	58	143.68035586447
19	60	59	146.62421614885
19	61	60	147.96725133921
19	62	61	148.75958175422
19	63	62	149.4097039219
19	64	63	151.12377851937
19	65	64	154.32184456127
19	66	65	158.43419338266
19	67	66	163.07321530529
19	68	67	168.80743792446
19	69	68	175.6353748655
19	70	69	182.66721272792
19	71	70	189.44161027677
19	72	71	195.0082252618
19	73	72	199.20862475497
19	74	73	201.99852398212
19	75	74	202.18095910012
19	76	75	202.36746252818
19	77	76	202.55883826022
19	78	77	202.79271307736
19	79	78	203.05144249202
19	80	79	203.26821126938
19	81	80	203.52390375826
19	82	81	203.75474992134
19	83	82	203.9511737599
19	84	83	204.15648818585
19	85	84	204.32858931553
19	86	85	204.45353555875
19	87	86	204.81168068902
19	88	87	207.10296324658
19	89	88	212.1093079893
19	90	89	217.89920181282
19	91	90	225.49740075872
19	92	91	233.67199738391
19	93	92	240.43810935439
19	94	93	247.38851872946
19	95	94	255.84913777135
19	96	95	263.3764892476
19	97	96	270.28793315358
19	98	97	275.56209635781
19	99	98	279.19897886028
19	100	99	281.20386064002
19	101	100	282.82541245435
19	102	101	284.38891635208
19	103	102	286.21575992233
19	104	103	291.04228840488
19	105	104	297.21216395622
19	106	105	303.82653613893
19	107	106	312.0414689419
19	108	107	320.71763371115
19	109	108	329.58673715764
19	110	109	339.20736618254
19	111	110	346.951741771
19	112	111	352.94879536694
19	113	112	356.99045203447
19	114	113	360.5995343336
19	115	114	364.6883126244
19	116	115	366.02467489978
19	117	116	366.36669282409
19	118	117	367.06928644214
19	119	118	368.10348561731
19	120	119	369.34390385444
19	121	120	370.52297349118
19	122	121	371.46609388359
19	123	122	372.47257946149
19	124	123	373.64822463655
19	125	124	374.86652450472
19	126	125	375.89662851193
19	127	126	377.17940000878
19	128	127	378.31724974939
19	129	128	379.2684900709
19	130	129	374.65937270258
19	131	130	370.29848826125
19	132	131	366.08013126115
19	133	132	361.34077002715
19	134	133	356.7766677857
19	135	134	352.34171397326
19	136	135	348.09916355261
19	137	136	344.21766983026
19	138	137	339.52289661849
19	139	138	335.70020961226
19	140	139	332.74960881155
19	141	140	330.67109421638
19	142	141	329.46466582673
19	143	142	327.69208632427
19	144	143	323.46913174255
19	145	144	318.11052856468
19	146	145	310.3756456979
19	147	146	301.1762053026
19	148	147	290.11429264465
19	149	148	280.61561351383
19	150	149	271.14511491032
19	151	150	263.72834041969
19	152	151	257.64186633709
19	153	152	253.29758300052
19	154	153	250.0366327109
19	155	154	249.17483932648
19	156	155	248.92760207646
19	157	156	248.43484639992
19	158	157	247.86327708591
19	159	158	247.05244119777
19	160	159	245.90339955906
19	161	160	243.72167102229
19	162	161	240.59384691106
19	163	162	237.40098637301
19	164	163	233.46769612979
19	165	164	229.57138261541
19	166	165	226.31107499971
19	167	166	222.65923653616
19	168	167	218.39427326558
19	169	168	214.15661030495
19	170	169	210.72773714301
19	171	170	208.10765377978
19	172	171	206.29636021525
19	173	172	204.89250427384
19	174	173	203.19819631424
19	175	174	201.96
19	176	175	202.10526765773
19	177	176	202.29012187645
19	178	177	202.51450667936
19	179	178	202.72594429147
19	180	179	202.97404461051
19	181	180	203.21841794226
19	182	181	203.42270226565
19	183	182	203.64806382105
19	184	183	203.86541714497
19	185	184	204.06742364584
19	186	185	204.26401827142
19	187	186	204.464387864
19	188	187	206.56428427944
19	189	188	213.39225327722
19	190	189	220.85473491081
19	191	190	228.84558992512
19	192	191	235.89043119867
19	193	192	244.28563521723
19	194	193	253.02533600683
19	195	194	260.12775609467
19	196	195	267.23838154232
19	197	196	272.71172628821
19	198	197	276.54779033235
19	199	198	279.59976243606
19	200	199	281.01445383801
19	201	200	283.2713321925
18	19	18	100.98045950086
18	20	19	103.44990896705
18	21	20	105.94968849079
18	22	21	108.5338473997
18	23	22	114.0127527829
18	24	23	121.32965356917
18	25	24	130.27660497818
18	26	25	140.08997554089
18	27	26	150.05788943578
18	28	27	161.688426176
18	29	28	171.4411936576
18	30	29	182.58149291138
18	31	30	194.25265271947
18	32	31	203.72361431151
18	33	32	211.74500730815
18	34	33	219.52778297215
18	35	34	228.72721934951
18	36	35	237.5011033082
18	37	36	244.42026089874
18	38	37	250.03538069954
18	39	38	255.51218812457
18	40	39	260.65392594391
18	41	40	265.16317279242
18	42	41	268.27523769192
18	43	42	273.01052621099
18	44	43	276.96553433771
18	45	44	279.61463349451
18	46	45	280.40900628316
18	47	46	282.54751018006
18	48	47	283.04
18	49	48	283.04
18	50	49	283.04
18	51	50	283.04
18	52	51	283.04
18	53	52	283.04
18	54	53	283.04
18	55	54	283.04
18	56	55	283.04
18	57	56	283.04
18	58	57	283.04
18	59	58	283.04
18	60	59	283.04
18	61	60	283.04
18	62	61	283.02707224279
18	63	62	282.84433191324
18	64	63	280.89978626206
18	65	64	276.9074122863
18	66	65	271.77367389608
18	67	66	265.98245190309
18	68	67	258.82401275391
18	69	68	250.30021199608
18	70	69	241.52186717272
18	71	70	233.06490345742
18	72	71	226.11570087431
18	73	72	220.89058070937
18	74	73	213.65313140541
18	75	74	205.1438362585
18	76	75	196.44478350685
18	77	76	187.51847257683
18	78	77	176.60988289193
18	79	78	164.54200376493
18	80	79	154.43128864947
18	81	80	142.50506041824
18	82	81	131.73773581196
18	83	82	122.57596677023
18	84	83	112.99951533122
18	85	84	104.97222692573
18	86	85	99.14437715255
18	87	86	95.287133940979
18	88	87	91.539761628907
18	89	88	87.045718973437
18	90	89	81.848308257501
18	91	90	75.027637304452
18	92	91	67.689551772442
18	93	92	61.615819864304
18	94	93	55.376649809153
18	95	94	47.781810696014
18	96	95	41.024737351003
18	97	96	34.820545406469
18	98	97	30.08609030404
18	99	98	26.821372043716
18	100	99	25.032810510465
18	101	100	24.793279670379
18	102	101	25.581695019154
18	103	102	26.523348628742
18	104	103	29.011201470316
18	105	104	32.191487773003
18	106	105	35.600891589744
18	107	106	39.835310591125
18	108	107	44.307473399907
18	109	108	48.879087198802
18	110	109	53.838077774303
18	111	110	57.829946232898
18	112	111	60.921150787825
18	113	112	63.004438405698
18	114	113	64.864753886243
18	115	114	66.972330527736
18	116	115	68.771454873484
18	117	116	71.942144025581
18	118	117	78.455562781626
18	119	118	88.043142474835
18	120	119	99.542483208207
18	121	120	110.4730895919
18	122	121	119.2163202381
18	123	122	128.54698005674
18	124	123	139.44583984837
18	125	124	150.74013146724
18	126	125	160.28974676245
18	127	126	172.18172487419
18	128	127	182.73020076643
18	129	128	191.57612588624
18	130	129	202.6571793914
18	131	130	212.75703308353
18	132	131	222.52679174037
18	133	132	233.50320161812
18	134	133	244.07370984752
18	135	134	254.34510897298
18	136	135	264.17089984327
18	137	136	273.16047964758
18	138	137	284.03362320239
18	139	138	292.88700604093
18	140	139	299.72062816321
18	141	140	304.53448956923
18	142	141	307.32859025897
18	143	142	309.21272761808
18	144	143	310.83441230437
18	145	144	312.89220491029
18	146	145	315.86252837756
18	147	146	319.3952662564
18	148	147	323.64322441254
18	149	148	327.29087493501
18	150	149	330.92770366703
18	151	150	333.7758682353
18	152	151	336.11317535576
18	153	152	337.78145229871
18	154	153	338.695725037
18	155	154	337.87529139757
18	156	155	337.32448378679
18	157	156	336.07797531708
18	158	157	334.63209447824
18	159	158	332.58094854479
18	160	159	329.67425420742
18	161	160	324.15520444468
18	162	161	316.24284659263
18	163	162	308.16596814603
18	164	163	298.21604806306
18	165	164	288.359666843
18	166	165	280.11216965458
18	167	166	270.87422924811
18	168	167	260.08528638475
18	169	168	249.36540425309
18	170	169	240.69149212705
18	171	170	234.06355000662
18	172	171	229.48157789181
18	173	172	225.930287862
18	174	173	221.64460760913
18	175	174	216.64746607565
18	176	175	208.67430139322
18	177	176	200.05217247718
18	178	177	189.58622416982
18	179	178	179.72416983346
18	180	179	168.15206209553
18	181	180	156.75379169327
18	182	181	147.22538718078
18	183	182	136.71388034695
18	184	183	126.57590030949
18	185	184	117.15373994738
18	186	185	107.98400491182
18	187	186	98.638194628918
18	188	187	92.023317272861
18	189	188	85.894058201989
18	190	189	79.195216531976
18	191	190	72.02207022795
18	192	191	65.698131543866
18	193	192	58.162013497736
18	194	193	50.316651229872
18	195	194	43.941025804113
18	196	195	37.558034677654
18	197	196	32.644780393301
18	198	197	29.201262951053
18	199	198	26.461600877783
18	200	199	25.191675646617
18	201	200	25.005631925948

